0,   100.00, 30, 0, 1,  60.00     / PSS(R)E 30 RAW created by rawd30  MON, NOV 23 2020  14:24
 00/00/01                      100.0  0    0
 0
     1,'1           ', 115.0000,1,     0.000,     0.000,   1,   1,1.02233,   9.5930,   1
     2,'2           ', 115.0000,1,     0.000,     0.000,   1,   1,1.03231,  11.5826,   1
     3,'3           ', 230.0000,1,     0.000,     0.000,   1,   1,0.99021,  10.3401,   1
     4,'4           ', 345.0000,1,     0.000,     0.000,   1,   1,1.02177,   8.0546,   1
     5,'5           ', 115.0000,1,     0.000,     0.000,   1,   1,1.01160,   8.1085,   1
     6,'6           ', 115.0000,1,     0.000,     0.000,   1,   1,1.02679,  10.7245,   1
     7,'7           ', 230.0000,1,     0.000,     0.000,   1,   1,0.98686,   9.8151,   1
     8,'8           ', 115.0000,1,     0.000,     0.000,   1,   1,1.01529,   5.2394,   1
     9,'9           ', 115.0000,1,     0.000,     0.000,   1,   1,0.99722,   5.9293,   1
    10,'10          ', 230.0000,1,     0.000,     0.000,   1,   1,1.02050,   4.1844,   1
    11,'11          ', 115.0000,1,     0.000,     0.000,   1,   1,1.00359,   5.4311,   1
    12,'12          ', 230.0000,1,     0.000,     0.000,   1,   1,0.99250,   8.6784,   1
    13,'13          ', 115.0000,1,     0.000,     0.000,   1,   1,0.99555,   1.9337,   1
    14,'14          ', 115.0000,1,     0.000,     0.000,   1,   1,0.98768,  -3.2034,   1
    15,'15          ', 115.0000,1,     0.000,     0.000,   1,   1,1.02259,  -7.6913,   1
    16,'16          ', 345.0000,1,     0.000,     0.000,   1,   1,1.01701,  -0.6839,   1
    17,'17          ', 115.0000,1,     0.000,     0.000,   1,   1,1.05405, -13.1014,   1
    19,'19          ', 230.0000,1,     0.000,     0.000,   1,   1,0.97521,   3.7998,   1
    20,'20          ', 115.0000,1,     0.000,     0.000,   1,   1,1.00099,  -0.2748,   1
    21,'21          ', 230.0000,1,     0.000,     0.000,   1,   1,0.97057,   4.4573,   1
    22,'22          ', 115.0000,1,     0.000,     0.000,   1,   1,0.99307,   0.3368,   1
    23,'23          ', 115.0000,1,     0.000,     0.000,   1,   1,1.04883,   7.3085,   1
    24,'24          ', 230.0000,1,     0.000,     0.000,   1,   1,1.00290,   9.6741,   1
    25,'25          ', 115.0000,1,     0.000,     0.000,   1,   1,1.01740,   4.4198,   1
    26,'26          ', 115.0000,1,     0.000,     0.000,   1,   1,0.98877,   0.7136,   1
    27,'27          ', 115.0000,1,     0.000,     0.000,   1,   1,0.96381,  -3.0226,   1
    33,'33          ', 115.0000,1,     0.000,     0.000,   1,   1,1.01029, -12.1244,   1
    34,'34          ', 345.0000,1,     0.000,     0.000,   1,   1,1.02640,  -7.0700,   1
    35,'35          ', 115.0000,1,     0.000,     0.000,   1,   1,0.97288, -27.5432,   1
    36,'36          ', 230.0000,1,     0.000,     0.000,   1,   1,0.99163, -23.8410,   1
    37,'37          ', 115.0000,1,     0.000,     0.000,   1,   1,1.00723, -11.3449,   1
    38,'38          ', 115.0000,1,     0.000,     0.000,   1,   1,1.00559, -12.7878,   1
    39,'39          ', 345.0000,1,     0.000,     0.000,   1,   1,1.04098,  -4.5160,   1
    40,'40          ', 115.0000,1,     0.000,     0.000,   1,   1,1.00807, -13.0411,   1
    41,'41          ', 115.0000,1,     0.000,     0.000,   1,   1,1.01605, -10.3077,   1
    42,'42          ', 345.0000,1,     0.000,     0.000,   1,   1,1.03025,  -6.4579,   1
    43,'43          ', 115.0000,1,     0.000,     0.000,   1,   1,0.98314, -17.7380,   1
    44,'44          ', 115.0000,1,     0.000,     0.000,   1,   1,0.99278, -18.4467,   1
    45,'45          ', 230.0000,1,     0.000,     0.000,   1,   1,1.00583, -15.2041,   1
    46,'46          ', 345.0000,1,     0.000,     0.000,   1,   1,1.01811, -11.4694,   1
    47,'47          ', 115.0000,1,     0.000,     0.000,   1,   1,0.95949, -24.9595,   1
    48,'48          ', 115.0000,1,     0.000,     0.000,   1,   1,0.98944, -16.8248,   1
    49,'49          ', 115.0000,1,     0.000,     0.000,   1,   1,1.04407,  -2.6539,   1
    51,'51          ', 115.0000,1,     0.000,     0.000,   1,   1,1.01420,  -8.1340,   1
    52,'52          ', 115.0000,1,     0.000,     0.000,   1,   1,0.98209, -12.4855,   1
    53,'53          ', 115.0000,1,     0.000,     0.000,   1,   1,0.97771, -18.7572,   1
    54,'54          ', 115.0000,1,     0.000,     0.000,   1,   1,0.98894, -17.2366,   1
    55,'55          ', 115.0000,1,     0.000,     0.000,   1,   1,1.00298, -12.8891,   1
    57,'57          ', 115.0000,1,     0.000,     0.000,   1,   1,1.02774,  -8.6423,   1
    58,'58          ', 115.0000,1,     0.000,     0.000,   1,   1,0.98146,  -6.6829,   1
    59,'59          ', 115.0000,1,     0.000,     0.000,   1,   1,0.96745,  -5.9676,   1
    60,'60          ', 230.0000,1,     0.000,     0.000,   1,   1,1.01264,  -9.9390,   1
    61,'61          ', 115.0000,1,     0.000,     0.000,   1,   1,0.98193,  -3.8810,   1
    62,'62          ', 230.0000,1,     0.000,     0.000,   1,   1,1.01040,  -1.4173,   1
    63,'63          ', 115.0000,1,     0.000,     0.000,   1,   1,0.95829, -20.7613,   1
    64,'64          ', 230.0000,1,     0.000,     0.000,   1,   1,0.94218, -15.3833,   1
    69,'69          ', 115.0000,1,     0.000,     0.000,   1,   1,0.94985, -27.3039,   1
    70,'70          ', 115.0000,1,     0.000,     0.000,   1,   1,0.93330, -38.6208,   1
    71,'71          ', 115.0000,1,     0.000,     0.000,   1,   1,0.96852, -32.3833,   1
    72,'72          ', 115.0000,1,     0.000,     0.000,   1,   1,0.96286, -29.5583,   1
    73,'73          ', 115.0000,1,     0.000,     0.000,   1,   1,0.96532, -27.6290,   1
    74,'74          ', 230.0000,1,     0.000,     0.000,   1,   1,0.98155, -23.2741,   1
    76,'76          ', 115.0000,1,     0.000,     0.000,   1,   1,0.96319, -28.6349,   1
    77,'77          ', 115.0000,1,     0.000,     0.000,   1,   1,0.97977, -26.5595,   1
    78,'78          ', 115.0000,1,     0.000,     0.000,   1,   1,0.98586, -25.5132,   1
    79,'79          ', 115.0000,1,     0.000,     0.000,   1,   1,0.97431, -26.5904,   1
    80,'80          ', 115.0000,1,     0.000,     0.000,   1,   1,0.98098, -26.3719,   1
    81,'81          ', 345.0000,1,     0.000,     0.000,   1,   1,1.02172, -19.2465,   1
    84,'84          ', 115.0000,1,     0.000,     0.000,   1,   1,1.02498, -17.4760,   1
    85,'85          ', 230.0000,1,     0.000,     0.000,   1,   1,0.98208, -18.6126,   1
    86,'86          ', 230.0000,1,     0.000,     0.000,   1,   1,0.98296, -14.4421,   1
    87,'87          ', 230.0000,1,     0.000,     0.000,   1,   1,0.98164,  -6.7532,   1
    88,'88          ', 230.0000,1,     0.000,     0.000,   1,   1,1.00320, -21.8478,   1
    89,'89          ', 115.0000,1,     0.000,     0.000,   1,   1,1.02380, -10.8933,   1
    90,'90          ', 115.0000,1,     0.000,     0.000,   1,   1,1.01736, -11.1477,   1
    91,'91          ', 115.0000,1,     0.000,     0.000,   1,   1,1.05199,  -8.8533,   1
    92,'92          ', 115.0000,1,     0.000,     0.000,   1,   1,1.05200,  -5.2061,   1
    94,'94          ', 115.0000,1,     0.000,     0.000,   1,   1,0.98493,  -8.7324,   1
    97,'97          ', 115.0000,1,     0.000,     0.000,   1,   1,1.01479, -13.3224,   1
    98,'98          ', 115.0000,1,     0.000,     0.000,   1,   1,1.00000, -15.0076,   1
    99,'99          ', 115.0000,1,     0.000,     0.000,   1,   1,0.98833, -21.6651,   1
   100,'100         ', 115.0000,1,     0.000,     0.000,   1,   1,1.00303, -14.7646,   1
   102,'102         ', 115.0000,1,     0.000,     0.000,   1,   1,0.99643, -15.6662,   1
   103,'103         ', 115.0000,1,     0.000,     0.000,   1,   1,1.02453, -11.9867,   1
   104,'104         ', 115.0000,1,     0.000,     0.000,   1,   1,0.99210, -18.1526,   1
   105,'105         ', 115.0000,1,     0.000,     0.000,   1,   1,1.01626, -13.0294,   1
   107,'107         ', 115.0000,1,     0.000,     0.000,   1,   1,1.00187, -16.7004,   1
   108,'108         ', 115.0000,1,     0.000,     0.000,   1,   1,0.98999, -21.6770,   1
   109,'109         ', 115.0000,1,     0.000,     0.000,   1,   1,0.96249, -28.3518,   1
   110,'110         ', 115.0000,1,     0.000,     0.000,   1,   1,0.96166, -26.7814,   1
   112,'112         ', 115.0000,1,     0.000,     0.000,   1,   1,0.95943, -31.2798,   1
   113,'113         ', 115.0000,1,     0.000,     0.000,   1,   1,0.95188, -27.5785,   1
   114,'114         ', 115.0000,1,     0.000,     0.000,   1,   1,0.96200, -31.1399,   1
   115,'115         ', 115.0000,1,     0.000,     0.000,   2,   2,0.90331,  10.6028,   1
   116,'116         ', 115.0000,1,     0.000,     0.000,   2,   2,1.03416,  18.4095,   1
   117,'117         ', 115.0000,1,     0.000,   373.750,   2,   2,0.88861,  26.0852,   1
   118,'118         ', 115.0000,1,     0.000,     0.000,   2,   2,0.88239,  27.3822,   1
   119,'119         ', 115.0000,1,     0.000,     0.000,   2,   2,1.04335,  43.9840,   1
   120,'120         ', 115.0000,1,     0.000,    63.250,   2,   2,1.01406,  38.4900,   1
   121,'121         ', 115.0000,1,     0.000,     0.000,   2,   2,0.82681,  14.1005,   1
   122,'122         ', 115.0000,1,     0.000,     0.000,   2,   2,0.88718,   8.1433,   1
   123,'123         ', 115.0000,1,     0.000,     0.000,   2,   2,0.96529,   3.0666,   1
   124,'124         ', 115.0000,1,     0.000,     0.000,   2,   2,1.02328,  14.9096,   1
   125,'125         ', 115.0000,1,     0.000,     0.000,   2,   2,1.01025,  -7.5176,   1
   126,'126         ', 115.0000,1,     0.000,     0.000,   2,   2,0.96721,  -2.3338,   1
   127,'127         ', 230.0000,1,     0.000,     0.000,   2,   2,0.98114,  -7.4924,   1
   128,'128         ', 230.0000,1,     0.000,     0.000,   2,   2,0.99003,  -4.6699,   1
   129,'129         ', 230.0000,1,     0.000,     0.000,   2,   2,0.98969,  -3.7684,   1
   130,'130         ', 230.0000,1,     0.000,     0.000,   2,   2,1.00855,   9.0582,   1
   131,'131         ', 230.0000,1,     0.000,     0.000,   2,   2,0.97854,   9.6543,   1
   132,'132         ', 230.0000,1,     0.000,     0.000,   2,   2,0.99657,   6.8774,   1
   133,'133         ', 230.0000,1,     0.000,     0.000,   2,   2,0.99307,  -7.1873,   1
   134,'134         ', 230.0000,1,     0.000,     0.000,   2,   2,1.01045,  -6.3064,   1
   135,'135         ', 230.0000,1,     0.000,     0.000,   2,   2,1.00853,  -6.3003,   1
   136,'136         ', 230.0000,1,     0.000,     0.000,   2,   2,1.04060,   0.2496,   1
   137,'137         ', 230.0000,1,     0.000,     0.000,   2,   2,1.04000,  -6.8976,   1
   138,'138         ', 230.0000,1,     0.000,     0.000,   2,   2,1.05495, -17.7626,   1
   139,'139         ', 115.0000,1,     0.000,     0.000,   2,   2,1.00411,  -8.8865,   1
   140,'140         ', 230.0000,1,     0.000,     0.000,   2,   2,1.03290,  -8.8370,   1
   141,'141         ', 230.0000,1,     0.000,     0.000,   2,   2,1.05099,  -4.4342,   1
   142,'142         ', 230.0000,1,     0.000,     0.000,   2,   2,0.99788,  -6.6135,   1
   143,'143         ', 230.0000,1,     0.000,     0.000,   2,   2,1.04348,   2.0669,   1
   144,'144         ', 230.0000,1,     0.000,     0.000,   2,   2,1.01076,  -1.1456,   1
   145,'145         ', 230.0000,1,     0.000,     0.000,   2,   2,0.99552,  -3.4848,   1
   146,'146         ', 230.0000,1,     0.000,     0.000,   2,   2,1.05279,   1.1887,   1
   147,'147         ', 230.0000,1,     0.000,     0.000,   2,   2,1.05280,   5.7572,   1
   148,'148         ', 230.0000,1,     0.000,     0.000,   2,   2,1.05064,  -2.4270,   1
   149,'149         ', 230.0000,1,     0.000,     0.000,   2,   2,1.07349,   3.2457,   1
   150,'150         ', 230.0000,1,     0.000,     0.000,   2,   2,0.97886,   9.9790,   1
   151,'151         ', 230.0000,1,     0.000,     0.000,   2,   2,0.99690,   7.4868,   1
   152,'152         ', 230.0000,1,     0.000,     0.000,   2,   2,1.05350,   8.8146,   1
   153,'153         ', 230.0000,1,     0.000,     0.000,   2,   2,1.04350,   9.2766,   1
   154,'154         ', 115.0000,1,     0.000,    39.675,   2,   2,0.96313,  -5.2587,   1
   155,'155         ', 230.0000,1,     0.000,     0.000,   2,   2,1.00295,   4.1836,   1
   156,'156         ', 115.0000,1,     0.000,     0.000,   2,   2,0.96299,   2.3019,   1
   157,'157         ', 230.0000,1,     0.000,     0.000,   2,   2,0.90144,  10.3453,   1
   158,'158         ', 230.0000,1,     0.000,     0.000,   2,   2,0.93182,  10.0046,   1
   159,'159         ', 230.0000,1,     0.000,     0.000,   2,   2,0.88998,  15.1811,   1
   160,'160         ', 230.0000,1,     0.000,     0.000,   2,   2,0.97205,  12.6399,   1
   161,'161         ', 230.0000,1,     0.000,     0.000,   2,   2,1.03004,   7.1652,   1
   162,'162         ', 230.0000,1,     0.000,     0.000,   2,   2,0.96389,  18.2948,   1
   163,'163         ', 230.0000,1,     0.000,     0.000,   2,   2,1.02139,  -1.3070,   1
   164,'164         ', 230.0000,1,     0.000,  -243.800,   2,   2,0.95834,   7.4514,   1
   165,'165         ', 230.0000,1,     0.000,     0.000,   2,   2,0.98071,  27.7716,   1
   166,'166         ', 230.0000,1,     0.000,  -118.450,   2,   2,0.98443,  32.4539,   1
   167,'167         ', 230.0000,1,     0.000,     0.000,   2,   2,0.95035,  -6.6729,   1
   168,'168         ', 230.0000,1,     0.000,     0.000,   2,   2,0.99009,  -4.7003,   1
   169,'169         ', 230.0000,1,     0.000,     0.000,   2,   2,0.97150,  -6.5982,   1
   170,'170         ', 115.0000,1,     0.000,     0.000,   2,   2,0.92898,   3.1289,   1
   171,'171         ', 115.0000,1,     0.000,     0.000,   2,   2,0.98287, -12.3958,   1
   172,'172         ', 115.0000,1,     0.000,     0.000,   2,   2,1.01133, -11.7174,   1
   173,'173         ', 115.0000,1,     0.000,    60.950,   2,   2,0.95389, -19.1356,   1
   174,'174         ', 115.0000,1,     0.000,     0.000,   2,   2,1.05618,  -7.5664,   1
   175,'175         ', 115.0000,1,     0.000,     0.000,   2,   2,0.94811, -11.9998,   1
   176,'176         ', 115.0000,1,     0.000,     0.000,   2,   2,1.05220,   1.8620,   1
   177,'177         ', 115.0000,1,     0.000,     0.000,   2,   2,1.00769,  -2.8646,   1
   178,'178         ', 115.0000,1,     0.000,     0.000,   2,   2,0.91470, -11.0908,   1
   179,'179         ', 115.0000,1,     0.000,    51.750,   2,   2,0.94242, -14.3338,   1
   180,'180         ', 115.0000,1,     0.000,     0.000,   2,   2,0.96107,  -6.9490,   1
   181,'181         ', 230.0000,1,     0.000,     0.000,   2,   2,1.04469,  -7.4876,   1
   182,'182         ', 230.0000,1,     0.000,     0.000,   2,   2,1.03440,  -9.6764,   1
   183,'183         ', 115.0000,1,     0.000,     0.000,   2,   2,0.97032,   5.3632,   1
   184,'184         ', 230.0000,1,     0.000,     0.000,   2,   2,1.03309,  -4.8890,   1
   185,'185         ', 230.0000,1,     0.000,     0.000,   2,   2,1.05219,  -1.9762,   1
   186,'186         ', 230.0000,1,     0.000,     0.000,   2,   2,1.06497,  -3.1097,   1
   187,'187         ', 230.0000,1,     0.000,     0.000,   2,   2,1.06496,  -4.2919,   1
   188,'188         ', 230.0000,1,     0.000,     0.000,   2,   2,1.04725,  -6.7189,   1
   189,'189         ',  66.0000,1,     0.000,     0.000,   3,   3,0.98799, -27.2696,   1
   190,'190         ', 345.0000,1,     0.000,  -172.500,   3,   3,1.05509, -20.5754,   1
   191,'191         ', 230.0000,1,     0.000,     0.000,   3,   3,1.04341,  20.6053,   1
   192,'192         ', 230.0000,1,     0.000,     0.000,   3,   3,0.89391,  -8.2139,   1
   193,'192         ',  66.0000,1,     0.000,     0.000,   3,   3,0.97769, -27.8321,   1
   194,'194         ', 345.0000,1,     0.000,     0.000,   3,   3,1.03860, -19.2379,   1
   195,'195         ', 345.0000,1,     0.000,     0.000,   3,   3,1.02768, -21.1022,   1
   196,'196         ', 115.0000,1,     0.000,     0.000,   3,   3,0.95963, -26.3574,   1
   197,'197         ', 115.0000,1,     0.000,     0.000,   3,   3,0.98391, -24.5531,   1
   198,'198         ', 115.0000,1,     0.000,     0.000,   3,   3,1.01499, -20.9529,   1
   199,'199         ', 115.0000,1,     0.000,     0.000,   3,   3,0.94097, -27.2536,   1
   200,'200         ', 115.0000,1,     0.000,     0.000,   3,   3,0.94398, -27.0929,   1
   201,'201         ',  66.0000,1,     0.000,     0.000,   1,   1,0.95191, -29.6282,   1
   202,'202         ',  66.0000,1,     0.000,     0.000,   3,   3,0.98109, -26.4503,   1
   203,'203         ', 115.0000,1,     0.000,     0.000,   3,   3,0.99921, -22.9894,   1
   204,'204         ',  66.0000,1,     0.000,     0.000,   3,   3,0.95234, -27.7989,   1
   205,'205         ',  66.0000,1,     0.000,     0.000,   3,   3,0.96855, -28.0068,   1
   206,'206         ',  66.0000,1,     0.000,     0.000,   3,   3,0.98579, -29.5831,   1
   207,'207         ',  66.0000,1,     0.000,     0.000,   1,   1,1.00169, -29.6841,   1
   208,'208         ',  66.0000,1,     0.000,     0.000,   3,   3,0.98176, -27.9341,   1
   209,'209         ',  66.0000,1,     0.000,     0.000,   3,   3,0.99132, -26.9962,   1
   210,'210         ', 115.0000,1,     0.000,     0.000,   3,   3,0.97118, -25.1364,   1
   211,'211         ', 115.0000,1,     0.000,     0.000,   3,   3,0.99461, -24.1100,   1
   212,'212         ', 138.0000,1,     0.000,     0.000,   3,   3,1.00615, -23.1081,   1
   213,'213         ',  16.5000,1,     0.000,     0.000,   3,   3,1.00999, -10.2917,   1
   214,'214         ', 138.0000,1,     0.000,     0.000,   3,   3,0.98937, -17.1071,   1
   215,'215         ', 138.0000,1,     0.000,     0.000,   3,   3,0.98025, -20.2557,   1
   216,'216         ', 138.0000,1,     0.000,     0.000,   3,   3,0.96508, -22.8768,   1
   217,'217         ', 138.0000,1,     0.000,     0.000,   3,   3,1.01558, -22.3880,   1
   218,'218         ', 138.0000,1,     0.000,     0.000,   3,   3,1.00147, -22.8653,   1
   219,'219         ', 345.0000,1,     0.000,     0.000,   3,   3,1.05056, -21.1924,   1
   220,'220         ', 138.0000,1,     0.000,     0.000,   3,   3,1.00799, -21.7531,   1
   221,'221         ', 138.0000,1,     0.000,     0.000,   3,   3,0.99997, -22.6005,   1
   222,'222         ',  20.0000,1,     0.000,     0.000,   3,   3,1.04998, -23.4324,   1
   223,'223         ', 138.0000,1,     0.000,     0.000,   3,   3,0.99507, -22.8323,   1
   224,'224         ', 230.0000,1,     0.000,     0.000,   3,   3,0.99005, -21.4911,   1
   225,'225         ', 230.0000,1,     0.000,     0.000,   3,   3,0.90400,  -8.4589,   1
   226,'226         ', 230.0000,1,     0.000,     0.000,   3,   3,1.00951, -21.5874,   1
   227,'227         ',  27.0000,1,     0.000,     0.000,   3,   3,0.99997, -28.1052,   1
   228,'228         ', 138.0000,1,     0.000,     0.000,   3,   3,1.03447, -20.8512,   1
   229,'229         ', 138.0000,1,     0.000,     0.000,   3,   3,1.04335, -19.6967,   1
   230,'230         ',  20.0000,1,     0.000,     0.000,   3,   3,1.03999, -12.5578,   1
   231,'231         ', 345.0000,1,     0.000,  -345.000,   3,   3,1.04975, -21.2459,   1
   232,'232         ', 138.0000,1,     0.000,     0.000,   3,   3,1.03650, -23.5256,   1
   233,'233         ',  66.0000,1,     0.000,     0.000,   3,   3,0.99998, -26.5891,   1
   234,'234         ', 138.0000,1,     0.000,     0.000,   3,   3,1.03303, -20.7850,   1
   235,'235         ', 138.0000,1,     0.000,     0.000,   3,   3,1.00915, -20.9232,   1
   236,'236         ',  20.0000,1,     0.000,     0.000,   3,   3,1.01647, -14.3694,   1
   237,'237         ', 345.0000,1,     0.000,     0.000,   3,   3,1.05184, -21.1063,   1
   238,'238         ', 138.0000,1,     0.000,  -172.500,   3,   3,1.00998, -20.8268,   1
   239,'239         ', 138.0000,1,     0.000,     0.000,   3,   3,0.99999, -14.9310,   1
   240,'240         ', 230.0000,1,     0.000,  -161.000,   3,   3,1.01925, -20.0177,   1
   241,'241         ',  20.0000,1,     0.000,     0.000,   3,   3,1.05000, -15.7710,   1
   242,'242         ', 138.0000,1,     0.000,     0.000,   3,   3,0.99299, -17.1169,   1
   243,'243         ',  66.0000,1,     0.000,     0.000,   3,   3,1.00999, -19.0908,   1
   244,'244         ',  66.0000,1,     0.000,     0.000,   3,   3,0.98948, -20.1862,   1
   245,'245         ',  66.0000,1,     0.000,     0.000,   3,   3,0.96599, -21.0042,   1
   246,'246         ',  66.0000,1,     0.000,     0.000,   3,   3,0.95853, -21.9821,   1
   247,'247         ',  66.0000,1,     0.000,     0.000,   3,   3,0.96304, -21.9268,   1
   248,'248         ',  66.0000,1,     0.000,    52.440,   3,   3,0.96883, -26.1260,   1
   249,'249         ',  66.0000,1,     0.000,     0.000,   3,   3,0.96763, -26.6213,   1
   250,'250         ',  66.0000,1,     0.000,     0.000,   3,   3,1.01858, -24.4656,   1
   281,'281         ', 230.0000,1,     0.000,     0.000,   3,   3,1.02081, -19.9333,   1
   319,'319         ', 230.0000,1,     0.000,     0.000,   1,   1,1.01263,   4.4217,   1
   320,'320         ', 115.0000,1,     0.000,     0.000,   1,   1,1.00716,   0.1311,   1
   322,'322         ', 115.0000,1,     0.000,     0.000,   1,   1,0.99737, -18.4840,   1
   323,'323         ', 230.0000,1,     0.000,     0.000,   1,   1,0.97105, -13.8543,   1
   324,'324         ', 115.0000,1,     0.000,     0.000,   1,   1,0.97196, -25.3124,   1
   526,'526         ', 115.0000,1,     0.000,     0.000,   1,   1,0.93188, -40.2779,   1
   528,'528         ', 115.0000,1,     0.000,     0.000,   1,   1,0.95741, -41.4977,   1
   531,'531         ', 115.0000,1,     0.000,     0.000,   1,   1,0.95218, -31.4545,   1
   552,'552         ', 115.0000,1,     0.000,     0.000,   1,   1,0.99884, -24.7187,   1
   562,'562         ', 230.0000,1,     0.000,     0.000,   1,   1,0.95030, -30.4227,   1
   609,'609         ', 115.0000,1,     0.000,     0.000,   1,   1,0.94941, -31.0383,   1
   664,'664         ', 345.0000,1,     0.000,     0.000,   3,   3,1.01629, -16.6267,   1
  1190,'1190        ',  86.0000,1,     0.000,     0.000,   1,   1,1.03447,  42.5932,   1
  1200,'1200        ',  86.0000,1,     0.000,     0.000,   1,   1,1.00472,  39.9776,   1
  1201,'1201        ', 115.0000,1,     0.000,     0.000,   2,   2,1.26223,  50.1388,   1
  2040,'2040        ', 115.0000,1,     0.000,     0.000,   3,   3,0.95465, -16.0635,   1
  7001,'7001        ',  13.8000,1,     0.000,     0.000,   1,   1,1.05068,  15.2455,   1
  7002,'7002        ',  13.8000,1,     0.000,     0.000,   1,   1,1.05069,  17.1028,   1
  7003,'7003        ',  13.8000,1,     0.000,     0.000,   1,   1,1.03225,  18.6620,   1
  7011,'7011        ',  13.8000,1,     0.000,     0.000,   1,   1,1.01449,   8.3698,   1
  7012,'7012        ',  13.8000,1,     0.000,     0.000,   1,   1,1.05068,  16.0965,   1
  7017,'7017        ',  13.8000,1,     0.000,     0.000,   1,   1,1.05066, -10.0142,   1
  7023,'7023        ',  13.8000,1,     0.000,     0.000,   1,   1,1.05070,   9.8755,   1
  7024,'7024        ',  13.8000,1,     0.000,     0.000,   1,   1,1.02899,  17.3281,   1
  7039,'7039        ',  20.0000,1,     0.000,     0.000,   1,   1,1.04998,   4.7933,   1
  7044,'7044        ',  13.8000,1,     0.000,     0.000,   1,   1,1.01449, -14.2613,   1
  7049,'7049        ',  13.8000,1,     0.000,     0.000,   1,   1,1.05069,   0.5027,   1
  7055,'7055        ',  13.8000,1,     0.000,     0.000,   1,   1,0.99670,  -7.3546,   1
  7057,'7057        ',  13.8000,1,     0.000,     0.000,   1,   1,1.02119,  -3.3270,   1
  7061,'7061        ',  13.8000,1,     0.000,     0.000,   1,   1,1.01448,   2.4838,   1
  7062,'7062        ',  13.8000,1,     0.000,     0.000,   1,   1,1.00168,   6.6294,   1
  7071,'7071        ',  13.8000,1,     0.000,     0.000,   1,   1,0.98929, -27.0682,   1
  7130,'7130        ',  13.8000,1,     0.000,     0.000,   2,   2,1.05066,  24.8995,   1
  7139,'7139        ',  13.8000,1,     0.000,     0.000,   2,   2,1.05067,  -1.5015,   1
  7166,'7166        ',  13.8000,1,     0.000,     0.000,   2,   2,1.01448,  38.1309,   1
  9001,'9001        ', 115.0000,1,     0.000,     0.000,   1,   9,1.00347, -11.3687,   1
  9002,'9002        ',   6.6000,1,     0.000,     0.000,   1,   9,0.99450, -20.3577,   1
  9003,'9003        ',   6.6000,1,     0.161,     2.760,   1,   9,0.94911, -21.5488,   1
  9004,'9004        ',   6.6000,1,     0.000,     0.000,   1,   9,0.94130, -21.7156,   1
  9005,'9005        ', 115.0000,1,     0.000,     0.000,   1,   9,1.00360, -11.4562,   1
  9006,'9006        ',   6.6000,1,     0.000,     0.000,   1,   9,0.97394, -18.7933,   1
  9007,'9007        ',   6.6000,1,     0.000,     0.000,   1,   9,0.95938, -20.3266,   1
  9012,'9012        ',   6.6000,1,     0.000,     0.000,   1,   9,0.99836, -18.4671,   1
  9021,'9021        ',   6.6000,1,     0.000,     0.000,   1,   9,0.98783, -20.6112,   1
  9022,'9022        ',   0.6000,1,     0.092,     0.000,   1,   9,0.96010, -23.5858,   1
  9023,'9023        ',   6.6000,1,     0.000,     0.000,   1,   9,0.97162, -20.9658,   1
  9024,'9024        ',   0.6000,1,     0.080,     0.000,   1,   9,0.96662, -23.3196,   1
  9025,'9025        ',   0.6000,1,     0.023,     0.000,   1,   9,0.96009, -22.1955,   1
  9026,'9026        ',   0.6000,1,     0.023,     0.000,   1,   9,0.96108, -22.0919,   1
  9031,'9031        ',   0.6000,1,     0.115,     0.000,   1,   9,0.88550, -28.2219,   1
  9032,'9032        ',   0.6000,1,     0.080,     0.000,   1,   9,0.90112, -26.7159,   1
  9033,'9033        ',   0.6000,1,     0.115,     0.000,   1,   9,0.88170, -28.6248,   1
  9034,'9034        ',   0.6000,1,     0.092,     1.978,   1,   9,0.96371, -23.2760,   1
  9035,'9035        ',   0.6000,1,     0.104,     0.000,   1,   9,0.90906, -25.8908,   1
  9036,'9036        ',   2.3000,1,     0.000,     0.000,   1,   9,0.92038, -25.2585,   1
  9037,'9037        ',   0.6000,1,     0.115,     0.000,   1,   9,0.91722, -25.1482,   1
  9038,'9038        ',   0.6000,1,     0.161,     0.000,   1,   9,0.89488, -27.4508,   1
  9041,'9041        ',   0.6000,1,     0.058,     0.000,   1,   9,0.92533, -23.5750,   1
  9042,'9042        ',   0.6000,1,     0.046,     0.000,   1,   9,0.90912, -25.0292,   1
  9043,'9043        ',   2.3000,1,     0.000,     0.000,   1,   9,0.92666, -23.7084,   1
  9044,'9044        ',   6.6000,1,     0.000,     0.000,   1,   9,0.94392, -21.6670,   1
  9051,'9051        ',  13.8000,1,     0.000,     0.000,   1,   9,1.00000, -21.0305,   1
  9052,'9052        ',  13.8000,1,     0.000,     0.000,   1,   9,0.95049, -18.5336,   1
  9053,'9053        ',  13.8000,1,     0.000,     0.000,   1,   9,1.00000, -18.8855,   1
  9054,'9054        ',  13.8000,1,     0.000,     0.000,   1,   9,1.00000,  -6.1967,   1
  9055,'9055        ',  13.8000,1,     0.000,     0.000,   1,   9,1.00000,  -7.0290,   1
  9071,'9071        ',   0.6000,1,     0.058,     0.000,   1,   9,0.94023, -22.5205,   1
  9072,'9072        ',   0.6000,1,     0.058,     0.000,   1,   9,0.94631, -21.8381,   1
  9121,'9121        ',   6.6000,1,     0.000,     0.000,   1,   9,0.97229, -20.8225,   1
  9533,'9533        ',   2.3000,1,     0.115,     0.000,   1,   9,1.04006, -19.4766,   1
 10000,'10000       ',  13.8000,2,     0.000,     0.000,   1,   1,1.01530,   5.2394,   1
 10001,'10001       ',  13.8000,2,     0.000,     0.000,   1,   1,1.02050,   4.1844,   1
 10002,'10002       ',  13.8000,2,     0.000,     0.000,   1,   1,1.00100,  -0.2749,   1
 10003,'10003       ',  13.8000,2,     0.000,     0.000,   1,   1,0.95830, -20.7613,   1
 10004,'10004       ',  13.8000,2,     0.000,     0.000,   1,   1,0.96320, -28.6349,   1
 10005,'10005       ',  20.0000,2,     0.000,     0.000,   1,   1,1.02500, -17.4736,   1
 10006,'10006       ',  18.0000,2,     0.000,     0.000,   1,   1,1.05200,  -8.8523,   1
 10007,'10007       ',  24.0000,2,     0.000,     0.000,   1,   1,1.05200,  -5.2044,   1
 10008,'10008       ',  15.5000,2,     0.000,     0.000,   1,   1,1.00000, -15.0072,   1
 10009,'10009       ',  18.0000,2,     0.000,     0.000,   1,   1,0.99000, -21.6762,   1
 10010,'10010       ',  26.0000,2,     0.000,     0.000,   2,   1,1.04350,  43.9958,   1
 10011,'10011       ',  24.0000,2,     0.000,     0.000,   2,   1,1.02330,  14.9111,   1
 10012,'10012       ',  13.8000,2,     0.000,     0.000,   2,   1,1.01030,  -7.5176,   1
 10013,'10013       ',  26.0000,2,     0.000,     0.000,   2,   1,1.05500, -17.7681,   1
 10014,'10014       ',  24.0000,2,     0.000,     0.000,   2,   1,1.05100,  -4.4325,   1
 10015,'10015       ',  26.0000,2,     0.000,     0.000,   2,   1,1.04350,   2.0712,   1
 10016,'10016       ',  15.5000,2,     0.000,     0.000,   2,   1,1.05280,   1.1892,   1
 10017,'10017       ',  24.0000,2,     0.000,     0.000,   2,   1,1.05280,   5.7585,   1
 10018,'10018       ',  18.0000,2,     0.000,     0.000,   2,   1,1.07350,   3.2463,   1
 10019,'10019       ',  20.0000,2,     0.000,     0.000,   2,   1,1.05350,   8.8168,   1
 10020,'10020       ',  24.0000,2,     0.000,     0.000,   2,   1,1.04350,   9.2779,   1
 10021,'10021       ',  13.8000,2,     0.000,     0.000,   2,   1,0.96300,   2.3019,   1
 10022,'10022       ',  24.0000,2,     0.000,     0.000,   2,   1,0.92900,   3.1305,   1
 10023,'10023       ',  13.8000,2,     0.000,     0.000,   2,   1,0.98290, -12.3958,   1
 10024,'10024       ',  24.0000,2,     0.000,     0.000,   2,   1,1.05220,   1.8634,   1
 10025,'10025       ',  18.0000,2,     0.000,     0.000,   2,   1,1.00770,  -2.8640,   1
 10026,'10026       ',  24.0000,2,     0.000,     0.000,   2,   1,1.05220,  -1.9750,   1
 10027,'10027       ',  26.0000,2,     0.000,     0.000,   2,   1,1.06500,  -3.1027,   1
 10028,'10028       ',  26.0000,2,     0.000,     0.000,   2,   1,1.06500,  -4.2849,   1
 10029,'10029       ',  20.0000,2,     0.000,     0.000,   3,   1,1.05510, -20.5725,   1
 10030,'10030       ',  26.0000,2,     0.000,     0.000,   3,   1,1.04350,  20.6173,   1
 10031,'10031       ',  20.0000,2,     0.000,     0.000,   3,   1,1.01500, -20.9502,   1
 10032,'10032       ',  24.0000,2,     0.000,     0.000,   3,   1,1.01000, -10.2900,   1
 10033,'10033       ',  18.0000,2,     0.000,     0.000,   3,   1,1.00800, -21.7524,   1
 10034,'10034       ',  20.0000,2,     0.000,     0.000,   3,   1,1.00000, -22.5975,   1