0,   100.00, 30, 0, 1,  60.00     / PSS(R)E 30 RAW created by rawd30  MON, NOV 23 2020  14:25
 00/00/01                      100.0  0    0
 0
     1,'1           ', 115.0000,1,     0.000,     0.000,   1,   1,1.02173,   4.8577,   1
     2,'2           ', 115.0000,1,     0.000,     0.000,   1,   1,1.03339,   6.9085,   1
     3,'3           ', 230.0000,1,     0.000,     0.000,   1,   1,0.99206,   6.9887,   1
     4,'4           ', 345.0000,1,     0.000,     0.000,   1,   1,1.02380,   4.7844,   1
     5,'5           ', 115.0000,1,     0.000,     0.000,   1,   1,1.01064,   3.3796,   1
     6,'6           ', 115.0000,1,     0.000,     0.000,   1,   1,1.02811,   6.2418,   1
     7,'7           ', 230.0000,1,     0.000,     0.000,   1,   1,0.98856,   6.3814,   1
     8,'8           ', 115.0000,1,     0.000,     0.000,   1,   1,1.01529,   0.2125,   1
     9,'9           ', 115.0000,1,     0.000,     0.000,   1,   1,0.99517,   0.7330,   1
    10,'10          ', 230.0000,1,     0.000,     0.000,   1,   1,1.02050,  -0.8200,   1
    11,'11          ', 115.0000,1,     0.000,     0.000,   1,   1,1.00242,  -0.0786,   1
    12,'12          ', 230.0000,1,     0.000,     0.000,   1,   1,0.99210,   4.3381,   1
    13,'13          ', 115.0000,1,     0.000,     0.000,   1,   1,0.99431,  -3.8524,   1
    14,'14          ', 115.0000,1,     0.000,     0.000,   1,   1,0.98536,  -8.3292,   1
    15,'15          ', 115.0000,1,     0.000,     0.000,   1,   1,1.02236, -12.6015,   1
    16,'16          ', 345.0000,1,     0.000,     0.000,   1,   1,1.01901,  -3.6415,   1
    17,'17          ', 115.0000,1,     0.000,     0.000,   1,   1,1.04528, -19.6976,   1
    19,'19          ', 230.0000,1,     0.000,     0.000,   1,   1,0.97257,  -1.3098,   1
    20,'20          ', 115.0000,1,     0.000,     0.000,   1,   1,1.00099,  -6.2279,   1
    21,'21          ', 230.0000,1,     0.000,     0.000,   1,   1,0.96876,  -0.9280,   1
    22,'22          ', 115.0000,1,     0.000,     0.000,   1,   1,0.99164,  -5.9732,   1
    23,'23          ', 115.0000,1,     0.000,     0.000,   1,   1,1.04746,   0.2548,   1
    24,'24          ', 230.0000,1,     0.000,     0.000,   1,   1,1.00223,   3.0519,   1
    25,'25          ', 115.0000,1,     0.000,     0.000,   1,   1,1.01400,  -2.7126,   1
    26,'26          ', 115.0000,1,     0.000,     0.000,   1,   1,0.98404,  -6.4302,   1
    27,'27          ', 115.0000,1,     0.000,     0.000,   1,   1,0.95778,  -9.9805,   1
    33,'33          ', 115.0000,1,     0.000,     0.000,   1,   1,1.01136, -14.2169,   1
    34,'34          ', 345.0000,1,     0.000,     0.000,   1,   1,1.02994,  -8.6044,   1
    35,'35          ', 115.0000,1,     0.000,     0.000,   1,   1,0.97319, -25.0195,   1
    36,'36          ', 230.0000,1,     0.000,     0.000,   1,   1,0.99286, -20.5358,   1
    37,'37          ', 115.0000,1,     0.000,     0.000,   1,   1,1.00862, -13.6185,   1
    38,'38          ', 115.0000,1,     0.000,     0.000,   1,   1,1.00634, -14.8849,   1
    39,'39          ', 345.0000,1,     0.000,     0.000,   1,   1,1.04466,  -6.1562,   1
    40,'40          ', 115.0000,1,     0.000,     0.000,   1,   1,1.00859, -15.4501,   1
    41,'41          ', 115.0000,1,     0.000,     0.000,   1,   1,1.01743, -12.1884,   1
    42,'42          ', 345.0000,1,     0.000,     0.000,   1,   1,1.03438,  -7.9281,   1
    43,'43          ', 115.0000,1,     0.000,     0.000,   1,   1,0.98378, -19.3665,   1
    44,'44          ', 115.0000,1,     0.000,     0.000,   1,   1,0.99604, -18.8713,   1
    45,'45          ', 230.0000,1,     0.000,     0.000,   1,   1,1.00970, -14.9501,   1
    46,'46          ', 345.0000,1,     0.000,     0.000,   1,   1,1.02510, -11.3007,   1
    47,'47          ', 115.0000,1,     0.000,     0.000,   1,   1,0.95984, -25.0360,   1
    48,'48          ', 115.0000,1,     0.000,     0.000,   1,   1,0.98827, -20.9048,   1
    49,'49          ', 115.0000,1,     0.000,     0.000,   1,   1,1.04417,  -3.1530,   1
    51,'51          ', 115.0000,1,     0.000,     0.000,   1,   1,1.01233,  -9.5352,   1
    52,'52          ', 115.0000,1,     0.000,     0.000,   1,   1,0.97727, -14.4535,   1
    53,'53          ', 115.0000,1,     0.000,     0.000,   1,   1,0.97766, -20.3934,   1
    54,'54          ', 115.0000,1,     0.000,     0.000,   1,   1,0.98954, -18.6227,   1
    55,'55          ', 115.0000,1,     0.000,     0.000,   1,   1,1.00046, -15.0399,   1
    57,'57          ', 115.0000,1,     0.000,     0.000,   1,   1,1.02396, -11.7684,   1
    58,'58          ', 115.0000,1,     0.000,     0.000,   1,   1,0.97598,  -9.5855,   1
    59,'59          ', 115.0000,1,     0.000,     0.000,   1,   1,0.96147,  -8.7826,   1
    60,'60          ', 230.0000,1,     0.000,     0.000,   1,   1,1.01430,  -9.7485,   1
    61,'61          ', 115.0000,1,     0.000,     0.000,   1,   1,0.97757,  -6.4939,   1
    62,'62          ', 230.0000,1,     0.000,     0.000,   1,   1,1.00827,  -1.2836,   1
    63,'63          ', 115.0000,1,     0.000,     0.000,   1,   1,0.95830, -20.0764,   1
    64,'64          ', 230.0000,1,     0.000,     0.000,   1,   1,0.94254, -14.8570,   1
    69,'69          ', 115.0000,1,     0.000,     0.000,   1,   1,0.95071, -22.5901,   1
    70,'70          ', 115.0000,1,     0.000,     0.000,   1,   1,0.93885, -35.9029,   1
    71,'71          ', 115.0000,1,     0.000,     0.000,   1,   1,0.96759, -30.4912,   1
    72,'72          ', 115.0000,1,     0.000,     0.000,   1,   1,0.96138, -27.2733,   1
    73,'73          ', 115.0000,1,     0.000,     0.000,   1,   1,0.96569, -25.5276,   1
    74,'74          ', 230.0000,1,     0.000,     0.000,   1,   1,0.98469, -20.8341,   1
    76,'76          ', 115.0000,1,     0.000,     0.000,   1,   1,0.96319, -26.2987,   1
    77,'77          ', 115.0000,1,     0.000,     0.000,   1,   1,0.97878, -24.0404,   1
    78,'78          ', 115.0000,1,     0.000,     0.000,   1,   1,0.98491, -23.0697,   1
    79,'79          ', 115.0000,1,     0.000,     0.000,   1,   1,0.97343, -23.9146,   1
    80,'80          ', 115.0000,1,     0.000,     0.000,   1,   1,0.97921, -22.1974,   1
    81,'81          ', 345.0000,1,     0.000,     0.000,   1,   1,1.02638, -14.3306,   1
    84,'84          ', 115.0000,1,     0.000,     0.000,   1,   1,1.02499, -15.8072,   1
    85,'85          ', 230.0000,1,     0.000,     0.000,   1,   1,0.98073, -25.0824,   1
    86,'86          ', 230.0000,1,     0.000,     0.000,   1,   1,0.97958, -20.9703,   1
    87,'87          ', 230.0000,1,     0.000,     0.000,   1,   1,0.97683, -12.7690,   1
    88,'88          ', 230.0000,1,     0.000,     0.000,   1,   1,1.00687, -18.1292,   1
    89,'89          ', 115.0000,1,     0.000,     0.000,   1,   1,1.02299, -16.2153,   1
    90,'90          ', 115.0000,1,     0.000,     0.000,   1,   1,1.01517, -15.6031,   1
    91,'91          ', 115.0000,1,     0.000,     0.000,   1,   1,1.05199, -15.4771,   1
    92,'92          ', 115.0000,1,     0.000,     0.000,   1,   1,1.05200, -11.6222,   1
    94,'94          ', 115.0000,1,     0.000,     0.000,   1,   1,0.98150, -15.0004,   1
    97,'97          ', 115.0000,1,     0.000,     0.000,   1,   1,1.01345, -20.0862,   1
    98,'98          ', 115.0000,1,     0.000,     0.000,   1,   1,1.00000, -22.2648,   1
    99,'99          ', 115.0000,1,     0.000,     0.000,   1,   1,0.98825, -28.0715,   1
   100,'100         ', 115.0000,1,     0.000,     0.000,   1,   1,1.00187, -21.6944,   1
   102,'102         ', 115.0000,1,     0.000,     0.000,   1,   1,0.99489, -22.5178,   1
   103,'103         ', 115.0000,1,     0.000,     0.000,   1,   1,1.02395, -18.3585,   1
   104,'104         ', 115.0000,1,     0.000,     0.000,   1,   1,0.99118, -24.9154,   1
   105,'105         ', 115.0000,1,     0.000,     0.000,   1,   1,1.01610, -19.0853,   1
   107,'107         ', 115.0000,1,     0.000,     0.000,   1,   1,0.99978, -21.9545,   1
   108,'108         ', 115.0000,1,     0.000,     0.000,   1,   1,0.98999, -28.1624,   1
   109,'109         ', 115.0000,1,     0.000,     0.000,   1,   1,0.95914, -32.1298,   1
   110,'110         ', 115.0000,1,     0.000,     0.000,   1,   1,0.95960, -31.7781,   1
   112,'112         ', 115.0000,1,     0.000,     0.000,   1,   1,0.95395, -32.9396,   1
   113,'113         ', 115.0000,1,     0.000,     0.000,   1,   1,0.95098, -28.6067,   1
   114,'114         ', 115.0000,1,     0.000,     0.000,   1,   1,0.95653, -32.3928,   1
   115,'115         ', 115.0000,1,     0.000,     0.000,   2,   2,0.93757,  18.3646,   1
   116,'116         ', 115.0000,1,     0.000,     0.000,   2,   2,1.03566,  25.1272,   1
   117,'117         ', 115.0000,1,     0.000,   325.000,   2,   2,0.92490,  31.3972,   1
   118,'118         ', 115.0000,1,     0.000,     0.000,   2,   2,0.91907,  32.5313,   1
   119,'119         ', 115.0000,1,     0.000,     0.000,   2,   2,1.04338,  47.4821,   1
   120,'120         ', 115.0000,1,     0.000,    55.000,   2,   2,1.01917,  42.8824,   1
   121,'121         ', 115.0000,1,     0.000,     0.000,   2,   2,0.86147,  21.7164,   1
   122,'122         ', 115.0000,1,     0.000,     0.000,   2,   2,0.91832,  16.0271,   1
   123,'123         ', 115.0000,1,     0.000,     0.000,   2,   2,0.97613,  11.2206,   1
   124,'124         ', 115.0000,1,     0.000,     0.000,   2,   2,1.02328,  22.0243,   1
   125,'125         ', 115.0000,1,     0.000,     0.000,   2,   2,1.01026,   1.0135,   1
   126,'126         ', 115.0000,1,     0.000,     0.000,   2,   2,0.98142,   5.1934,   1
   127,'127         ', 230.0000,1,     0.000,     0.000,   2,   2,0.99563,   0.1502,   1
   128,'128         ', 230.0000,1,     0.000,     0.000,   2,   2,1.00376,   1.5247,   1
   129,'129         ', 230.0000,1,     0.000,     0.000,   2,   2,1.00312,   2.2580,   1
   130,'130         ', 230.0000,1,     0.000,     0.000,   2,   2,1.01788,   9.1644,   1
   131,'131         ', 230.0000,1,     0.000,     0.000,   2,   2,0.98376,   7.1877,   1
   132,'132         ', 230.0000,1,     0.000,     0.000,   2,   2,1.00509,   7.7983,   1
   133,'133         ', 230.0000,1,     0.000,     0.000,   2,   2,1.00233,   0.0608,   1
   134,'134         ', 230.0000,1,     0.000,     0.000,   2,   2,1.02098,   1.7833,   1
   135,'135         ', 230.0000,1,     0.000,     0.000,   2,   2,1.02001,   2.1239,   1
   136,'136         ', 230.0000,1,     0.000,     0.000,   2,   2,1.04690,   8.4391,   1
   137,'137         ', 230.0000,1,     0.000,     0.000,   2,   2,1.04496,   1.7485,   1
   138,'138         ', 230.0000,1,     0.000,     0.000,   2,   2,1.05497,  -7.5458,   1
   139,'139         ', 115.0000,1,     0.000,     0.000,   2,   2,1.01084,   0.7205,   1
   140,'140         ', 230.0000,1,     0.000,     0.000,   2,   2,1.04163,   0.2638,   1
   141,'141         ', 230.0000,1,     0.000,     0.000,   2,   2,1.05099,   4.5613,   1
   142,'142         ', 230.0000,1,     0.000,     0.000,   2,   2,1.01457,   1.1344,   1
   143,'143         ', 230.0000,1,     0.000,     0.000,   2,   2,1.04349,   7.8011,   1
   144,'144         ', 230.0000,1,     0.000,     0.000,   2,   2,1.00903,  -0.5747,   1
   145,'145         ', 230.0000,1,     0.000,     0.000,   2,   2,1.00791,   4.0638,   1
   146,'146         ', 230.0000,1,     0.000,     0.000,   2,   2,1.05280,   8.8404,   1
   147,'147         ', 230.0000,1,     0.000,     0.000,   2,   2,1.05280,  13.1201,   1
   148,'148         ', 230.0000,1,     0.000,     0.000,   2,   2,1.05746,   4.1637,   1
   149,'149         ', 230.0000,1,     0.000,     0.000,   2,   2,1.07350,   9.3721,   1
   150,'150         ', 230.0000,1,     0.000,     0.000,   2,   2,0.98481,   7.7509,   1
   151,'151         ', 230.0000,1,     0.000,     0.000,   2,   2,1.00441,   7.9649,   1
   152,'152         ', 230.0000,1,     0.000,     0.000,   2,   2,1.05350,  16.5543,   1
   153,'153         ', 230.0000,1,     0.000,     0.000,   2,   2,1.04350,  17.5224,   1
   154,'154         ', 115.0000,1,     0.000,    34.500,   2,   2,0.96725,   4.8653,   1
   155,'155         ', 230.0000,1,     0.000,     0.000,   2,   2,1.01362,  12.9967,   1
   156,'156         ', 115.0000,1,     0.000,     0.000,   2,   2,0.96300,  11.4053,   1
   157,'157         ', 230.0000,1,     0.000,     0.000,   2,   2,0.93275,  17.6080,   1
   158,'158         ', 230.0000,1,     0.000,     0.000,   2,   2,0.95370,  17.0340,   1
   159,'159         ', 230.0000,1,     0.000,     0.000,   2,   2,0.92218,  21.8292,   1
   160,'160         ', 230.0000,1,     0.000,     0.000,   2,   2,0.98204,  19.7267,   1
   161,'161         ', 230.0000,1,     0.000,     0.000,   2,   2,1.03446,  15.6388,   1
   162,'162         ', 230.0000,1,     0.000,     0.000,   2,   2,0.98302,  25.4155,   1
   163,'163         ', 230.0000,1,     0.000,     0.000,   2,   2,1.03240,   7.2379,   1
   164,'164         ', 230.0000,1,     0.000,  -212.000,   2,   2,0.97608,  15.7054,   1
   165,'165         ', 230.0000,1,     0.000,     0.000,   2,   2,0.99421,  33.8686,   1
   166,'166         ', 230.0000,1,     0.000,  -103.000,   2,   2,0.99355,  38.0841,   1
   167,'167         ', 230.0000,1,     0.000,     0.000,   2,   2,0.97186,  -0.7645,   1
   168,'168         ', 230.0000,1,     0.000,     0.000,   2,   2,1.00376,   1.5077,   1
   169,'169         ', 230.0000,1,     0.000,     0.000,   2,   2,0.98672,   0.0427,   1
   170,'170         ', 115.0000,1,     0.000,     0.000,   2,   2,0.92899,   4.5550,   1
   171,'171         ', 115.0000,1,     0.000,     0.000,   2,   2,0.98289,  -4.4123,   1
   172,'172         ', 115.0000,1,     0.000,     0.000,   2,   2,1.02380,  -1.8101,   1
   173,'173         ', 115.0000,1,     0.000,    53.000,   2,   2,0.98224,  -8.2534,   1
   174,'174         ', 115.0000,1,     0.000,     0.000,   2,   2,1.06194,   1.8020,   1
   175,'175         ', 115.0000,1,     0.000,     0.000,   2,   2,0.97301,  -3.0915,   1
   176,'176         ', 115.0000,1,     0.000,     0.000,   2,   2,1.05220,  10.0036,   1
   177,'177         ', 115.0000,1,     0.000,     0.000,   2,   2,1.00770,   5.6344,   1
   178,'178         ', 115.0000,1,     0.000,     0.000,   2,   2,0.93945,  -2.1939,   1
   179,'179         ', 115.0000,1,     0.000,    45.000,   2,   2,0.96988,  -5.1859,   1
   180,'180         ', 115.0000,1,     0.000,     0.000,   2,   2,0.97904,   1.1825,   1
   181,'181         ', 230.0000,1,     0.000,     0.000,   2,   2,1.04864,   1.3208,   1
   182,'182         ', 230.0000,1,     0.000,     0.000,   2,   2,1.04374,  -0.2626,   1
   183,'183         ', 115.0000,1,     0.000,     0.000,   2,   2,0.97179,  14.1175,   1
   184,'184         ', 230.0000,1,     0.000,     0.000,   2,   2,1.03802,   3.2585,   1
   185,'185         ', 230.0000,1,     0.000,     0.000,   2,   2,1.05220,   5.9463,   1
   186,'186         ', 230.0000,1,     0.000,     0.000,   2,   2,1.06497,   5.3112,   1
   187,'187         ', 230.0000,1,     0.000,     0.000,   2,   2,1.06497,   4.2659,   1
   188,'188         ', 230.0000,1,     0.000,     0.000,   2,   2,1.05064,   2.0238,   1
   189,'189         ',  66.0000,1,     0.000,     0.000,   3,   3,0.99562, -20.8304,   1
   190,'190         ', 345.0000,1,     0.000,  -150.000,   3,   3,1.05510,  -9.9276,   1
   191,'191         ', 230.0000,1,     0.000,     0.000,   3,   3,1.04342,  33.3233,   1
   192,'192         ', 230.0000,1,     0.000,     0.000,   3,   3,0.91630,   7.2251,   1
   193,'192         ',  66.0000,1,     0.000,     0.000,   3,   3,0.98552, -21.8676,   1
   194,'194         ', 345.0000,1,     0.000,     0.000,   3,   3,1.04399, -11.5497,   1
   195,'195         ', 345.0000,1,     0.000,     0.000,   3,   3,1.03067, -13.4258,   1
   196,'196         ', 115.0000,1,     0.000,     0.000,   3,   3,0.96316, -19.6760,   1
   197,'197         ', 115.0000,1,     0.000,     0.000,   3,   3,0.98660, -17.7920,   1
   198,'198         ', 115.0000,1,     0.000,     0.000,   3,   3,1.01499, -14.3694,   1
   199,'199         ', 115.0000,1,     0.000,     0.000,   3,   3,0.95086, -19.7113,   1
   200,'200         ', 115.0000,1,     0.000,     0.000,   3,   3,0.95551, -19.2154,   1
   201,'201         ',  66.0000,1,     0.000,     0.000,   1,   1,0.95108, -24.5881,   1
   202,'202         ',  66.0000,1,     0.000,     0.000,   3,   3,0.98633, -19.2898,   1
   203,'203         ', 115.0000,1,     0.000,     0.000,   3,   3,1.00113, -16.2187,   1
   204,'204         ',  66.0000,1,     0.000,     0.000,   3,   3,0.96276, -21.7309,   1
   205,'205         ',  66.0000,1,     0.000,     0.000,   3,   3,0.97596, -22.2228,   1
   206,'206         ',  66.0000,1,     0.000,     0.000,   3,   3,0.97816, -27.0869,   1
   207,'207         ',  66.0000,1,     0.000,     0.000,   1,   1,0.98465, -28.7695,   1
   208,'208         ',  66.0000,1,     0.000,     0.000,   3,   3,0.98887, -22.0703,   1
   209,'209         ',  66.0000,1,     0.000,     0.000,   3,   3,1.00008, -20.3221,   1
   210,'210         ', 115.0000,1,     0.000,     0.000,   3,   3,0.97571, -18.1538,   1
   211,'211         ', 115.0000,1,     0.000,     0.000,   3,   3,0.99682, -17.2945,   1
   212,'212         ', 138.0000,1,     0.000,     0.000,   3,   3,1.00908, -15.8467,   1
   213,'213         ',  16.5000,1,     0.000,     0.000,   3,   3,1.01000,  -1.8782,   1
   214,'214         ', 138.0000,1,     0.000,     0.000,   3,   3,0.99137,  -8.1396,   1
   215,'215         ', 138.0000,1,     0.000,     0.000,   3,   3,0.98558, -11.0952,   1
   216,'216         ', 138.0000,1,     0.000,     0.000,   3,   3,0.97469, -12.9220,   1
   217,'217         ', 138.0000,1,     0.000,     0.000,   3,   3,1.02034, -11.6925,   1
   218,'218         ', 138.0000,1,     0.000,     0.000,   3,   3,1.00614, -11.9218,   1
   219,'219         ', 345.0000,1,     0.000,     0.000,   3,   3,1.05369, -10.8724,   1
   220,'220         ', 138.0000,1,     0.000,     0.000,   3,   3,1.00800, -10.1633,   1
   221,'221         ', 138.0000,1,     0.000,     0.000,   3,   3,0.99998, -10.2521,   1
   222,'222         ',  20.0000,1,     0.000,     0.000,   3,   3,1.04999, -12.1425,   1
   223,'223         ', 138.0000,1,     0.000,     0.000,   3,   3,0.99592, -10.4468,   1
   224,'224         ', 230.0000,1,     0.000,     0.000,   3,   3,0.99378,  -9.1600,   1
   225,'225         ', 230.0000,1,     0.000,     0.000,   3,   3,0.92326,   6.6482,   1
   226,'226         ', 230.0000,1,     0.000,     0.000,   3,   3,1.01169,  -9.7397,   1
   227,'227         ',  27.0000,1,     0.000,     0.000,   3,   3,0.99997, -16.0524,   1
   228,'228         ', 138.0000,1,     0.000,     0.000,   3,   3,1.04147,  -9.6981,   1
   229,'229         ', 138.0000,1,     0.000,     0.000,   3,   3,1.04876,  -8.6761,   1
   230,'230         ',  20.0000,1,     0.000,     0.000,   3,   3,1.04000,  -2.1342,   1
   231,'231         ', 345.0000,1,     0.000,  -300.000,   3,   3,1.05265, -10.5813,   1
   232,'232         ', 138.0000,1,     0.000,     0.000,   3,   3,1.04075, -12.4849,   1
   233,'233         ',  66.0000,1,     0.000,     0.000,   3,   3,0.99999, -14.6454,   1
   234,'234         ', 138.0000,1,     0.000,     0.000,   3,   3,1.03797,  -9.5434,   1
   235,'235         ', 138.0000,1,     0.000,     0.000,   3,   3,1.00944,  -9.3783,   1
   236,'236         ',  20.0000,1,     0.000,     0.000,   3,   3,1.01647,  -3.6664,   1
   237,'237         ', 345.0000,1,     0.000,     0.000,   3,   3,1.05476, -10.5235,   1
   238,'238         ', 138.0000,1,     0.000,  -150.000,   3,   3,1.00998,  -9.2837,   1
   239,'239         ', 138.0000,1,     0.000,     0.000,   3,   3,0.99999,  -3.8592,   1
   240,'240         ', 230.0000,1,     0.000,  -140.000,   3,   3,1.02378,  -9.4448,   1
   241,'241         ',  20.0000,1,     0.000,     0.000,   3,   3,1.05000,  -5.6214,   1
   242,'242         ', 138.0000,1,     0.000,     0.000,   3,   3,0.99299,  -8.1065,   1
   243,'243         ',  66.0000,1,     0.000,     0.000,   3,   3,1.00999,  -9.6398,   1
   244,'244         ',  66.0000,1,     0.000,     0.000,   3,   3,0.99181, -10.6564,   1
   245,'245         ',  66.0000,1,     0.000,     0.000,   3,   3,0.97059, -11.4745,   1
   246,'246         ',  66.0000,1,     0.000,     0.000,   3,   3,0.96437, -12.3127,   1
   247,'247         ',  66.0000,1,     0.000,     0.000,   3,   3,0.96764, -12.5180,   1
   248,'248         ',  66.0000,1,     0.000,    45.600,   3,   3,0.97098, -16.9804,   1
   249,'249         ',  66.0000,1,     0.000,     0.000,   3,   3,0.97018, -17.4093,   1
   250,'250         ',  66.0000,1,     0.000,     0.000,   3,   3,1.01474, -15.5326,   1
   281,'281         ', 230.0000,1,     0.000,     0.000,   3,   3,1.02513,  -9.3720,   1
   319,'319         ', 230.0000,1,     0.000,     0.000,   1,   1,1.01200,  -2.6197,   1
   320,'320         ', 115.0000,1,     0.000,     0.000,   1,   1,1.00386,  -7.0620,   1
   322,'322         ', 115.0000,1,     0.000,     0.000,   1,   1,0.99679, -25.2720,   1
   323,'323         ', 230.0000,1,     0.000,     0.000,   1,   1,0.96648, -20.3297,   1
   324,'324         ', 115.0000,1,     0.000,     0.000,   1,   1,0.97012, -32.0868,   1
   526,'526         ', 115.0000,1,     0.000,     0.000,   1,   1,0.95165, -36.7744,   1
   528,'528         ', 115.0000,1,     0.000,     0.000,   1,   1,0.96012, -38.3848,   1
   531,'531         ', 115.0000,1,     0.000,     0.000,   1,   1,0.94978, -29.3269,   1
   552,'552         ', 115.0000,1,     0.000,     0.000,   1,   1,0.99900, -22.0473,   1
   562,'562         ', 230.0000,1,     0.000,     0.000,   1,   1,0.96454, -26.9824,   1
   609,'609         ', 115.0000,1,     0.000,     0.000,   1,   1,0.94545, -28.8929,   1
   664,'664         ', 345.0000,1,     0.000,     0.000,   3,   3,1.02587,  -9.3156,   1
  1190,'1190        ',  86.0000,1,     0.000,     0.000,   1,   1,1.03377,  45.9811,   1
  1200,'1200        ',  86.0000,1,     0.000,     0.000,   1,   1,1.00912,  44.4720,   1
  1201,'1201        ', 115.0000,1,     0.000,     0.000,   2,   2,1.21710,  54.6190,   1
  2040,'2040        ', 115.0000,1,     0.000,     0.000,   3,   3,0.95863,  -9.4381,   1
  7001,'7001        ',  13.8000,1,     0.000,     0.000,   1,   1,1.05068,  10.0623,   1
  7002,'7002        ',  13.8000,1,     0.000,     0.000,   1,   1,1.05069,  11.9829,   1
  7003,'7003        ',  13.8000,1,     0.000,     0.000,   1,   1,1.03225,  14.6299,   1
  7011,'7011        ',  13.8000,1,     0.000,     0.000,   1,   1,1.01449,   2.6293,   1
  7012,'7012        ',  13.8000,1,     0.000,     0.000,   1,   1,1.05068,  11.1659,   1
  7017,'7017        ',  13.8000,1,     0.000,     0.000,   1,   1,1.05065, -16.8323,   1
  7023,'7023        ',  13.8000,1,     0.000,     0.000,   1,   1,1.05070,   2.6206,   1
  7024,'7024        ',  13.8000,1,     0.000,     0.000,   1,   1,1.02899,  10.0984,   1
  7039,'7039        ',  20.0000,1,     0.000,     0.000,   1,   1,1.04998,   2.3763,   1
  7044,'7044        ',  13.8000,1,     0.000,     0.000,   1,   1,1.01450, -15.0320,   1
  7049,'7049        ',  13.8000,1,     0.000,     0.000,   1,   1,1.05069,   0.5023,   1
  7055,'7055        ',  13.8000,1,     0.000,     0.000,   1,   1,0.99670,  -9.9341,   1
  7057,'7057        ',  13.8000,1,     0.000,     0.000,   1,   1,1.02119,  -6.8590,   1
  7061,'7061        ',  13.8000,1,     0.000,     0.000,   1,   1,1.01448,  -0.6111,   1
  7062,'7062        ',  13.8000,1,     0.000,     0.000,   1,   1,1.00168,   6.1349,   1
  7071,'7071        ',  13.8000,1,     0.000,     0.000,   1,   1,0.98929, -25.5953,   1
  7130,'7130        ',  13.8000,1,     0.000,     0.000,   2,   2,1.05067,  23.5798,   1
  7139,'7139        ',  13.8000,1,     0.000,     0.000,   2,   2,1.05067,   7.4696,   1
  7166,'7166        ',  13.8000,1,     0.000,     0.000,   2,   2,1.01448,  43.2599,   1
  9001,'9001        ', 115.0000,1,     0.000,     0.000,   1,   9,1.00491, -13.6384,   1
  9002,'9002        ',   6.6000,1,     0.000,     0.000,   1,   9,0.99450, -21.3936,   1
  9003,'9003        ',   6.6000,1,     0.140,     2.400,   1,   9,0.96779, -22.3091,   1
  9004,'9004        ',   6.6000,1,     0.000,     0.000,   1,   9,0.96117, -22.4504,   1
  9005,'9005        ', 115.0000,1,     0.000,     0.000,   1,   9,1.00528, -13.7104,   1
  9006,'9006        ',   6.6000,1,     0.000,     0.000,   1,   9,0.98800, -19.9832,   1
  9007,'9007        ',   6.6000,1,     0.000,     0.000,   1,   9,0.97612, -21.2801,   1
  9012,'9012        ',   6.6000,1,     0.000,     0.000,   1,   9,0.99939, -19.7688,   1
  9021,'9021        ',   6.6000,1,     0.000,     0.000,   1,   9,0.98872, -21.6142,   1
  9022,'9022        ',   0.6000,1,     0.080,     0.000,   1,   9,0.96488, -24.1867,   1
  9023,'9023        ',   6.6000,1,     0.000,     0.000,   1,   9,0.97470, -21.9234,   1
  9024,'9024        ',   0.6000,1,     0.070,     0.000,   1,   9,0.97050, -23.9596,   1
  9025,'9025        ',   0.6000,1,     0.020,     0.000,   1,   9,0.96476, -22.9846,   1
  9026,'9026        ',   0.6000,1,     0.020,     0.000,   1,   9,0.96561, -22.8953,   1
  9031,'9031        ',   0.6000,1,     0.100,     0.000,   1,   9,0.91515, -27.8276,   1
  9032,'9032        ',   0.6000,1,     0.070,     0.000,   1,   9,0.92778, -26.5977,   1
  9033,'9033        ',   0.6000,1,     0.100,     0.000,   1,   9,0.91213, -28.1544,   1
  9034,'9034        ',   0.6000,1,     0.080,     1.720,   1,   9,0.98114, -23.7626,   1
  9035,'9035        ',   0.6000,1,     0.090,     0.000,   1,   9,0.93427, -25.9200,   1
  9036,'9036        ',   2.3000,1,     0.000,     0.000,   1,   9,0.94371, -25.3938,   1
  9037,'9037        ',   0.6000,1,     0.100,     0.000,   1,   9,0.94101, -25.3076,   1
  9038,'9038        ',   0.6000,1,     0.140,     0.000,   1,   9,0.92274, -27.2010,   1
  9041,'9041        ',   0.6000,1,     0.050,     0.000,   1,   9,0.94767, -23.9996,   1
  9042,'9042        ',   0.6000,1,     0.040,     0.000,   1,   9,0.93414, -25.2025,   1
  9043,'9043        ',   2.3000,1,     0.000,     0.000,   1,   9,0.94881, -24.1077,   1
  9044,'9044        ',   6.6000,1,     0.000,     0.000,   1,   9,0.96339, -22.4091,   1
  9051,'9051        ',  13.8000,1,     0.000,     0.000,   1,   9,1.00000, -22.0222,   1
  9052,'9052        ',  13.8000,1,     0.000,     0.000,   1,   9,0.97091, -19.7209,   1
  9053,'9053        ',  13.8000,1,     0.000,     0.000,   1,   9,1.00000, -20.1629,   1
  9054,'9054        ',  13.8000,1,     0.000,     0.000,   1,   9,1.00000,  -8.8786,   1
  9055,'9055        ',  13.8000,1,     0.000,     0.000,   1,   9,1.00000,  -9.6429,   1
  9071,'9071        ',   0.6000,1,     0.050,     0.000,   1,   9,0.95990, -23.1200,   1
  9072,'9072        ',   0.6000,1,     0.050,     0.000,   1,   9,0.96502, -22.5491,   1
  9121,'9121        ',   6.6000,1,     0.000,     0.000,   1,   9,0.97692, -21.8050,   1
  9533,'9533        ',   2.3000,1,     0.100,     0.000,   1,   9,1.04052, -20.6767,   1
 10000,'10000       ',  13.8000,2,     0.000,     0.000,   1,   1,1.01530,   0.2124,   1
 10001,'10001       ',  13.8000,2,     0.000,     0.000,   1,   1,1.02050,  -0.8200,   1
 10002,'10002       ',  13.8000,2,     0.000,     0.000,   1,   1,1.00100,  -6.2280,   1
 10003,'10003       ',  13.8000,2,     0.000,     0.000,   1,   1,0.95830, -20.0764,   1
 10004,'10004       ',  13.8000,2,     0.000,     0.000,   1,   1,0.96320, -26.2987,   1
 10005,'10005       ',  20.0000,2,     0.000,     0.000,   1,   1,1.02500, -15.8050,   1
 10006,'10006       ',  18.0000,2,     0.000,     0.000,   1,   1,1.05200, -15.4762,   1
 10007,'10007       ',  24.0000,2,     0.000,     0.000,   1,   1,1.05200, -11.6206,   1
 10008,'10008       ',  15.5000,2,     0.000,     0.000,   1,   1,1.00000, -22.2644,   1
 10009,'10009       ',  18.0000,2,     0.000,     0.000,   1,   1,0.99000, -28.1616,   1
 10010,'10010       ',  26.0000,2,     0.000,     0.000,   2,   1,1.04350,  47.4930,   1
 10011,'10011       ',  24.0000,2,     0.000,     0.000,   2,   1,1.02330,  22.0257,   1
 10012,'10012       ',  13.8000,2,     0.000,     0.000,   2,   1,1.01030,   1.0135,   1
 10013,'10013       ',  26.0000,2,     0.000,     0.000,   2,   1,1.05500,  -7.5506,   1
 10014,'10014       ',  24.0000,2,     0.000,     0.000,   2,   1,1.05100,   4.5628,   1
 10015,'10015       ',  26.0000,2,     0.000,     0.000,   2,   1,1.04350,   7.8050,   1
 10016,'10016       ',  15.5000,2,     0.000,     0.000,   2,   1,1.05280,   8.8408,   1
 10017,'10017       ',  24.0000,2,     0.000,     0.000,   2,   1,1.05280,  13.1213,   1
 10018,'10018       ',  18.0000,2,     0.000,     0.000,   2,   1,1.07350,   9.3726,   1
 10019,'10019       ',  20.0000,2,     0.000,     0.000,   2,   1,1.05350,  16.5563,   1
 10020,'10020       ',  24.0000,2,     0.000,     0.000,   2,   1,1.04350,  17.5236,   1
 10021,'10021       ',  13.8000,2,     0.000,     0.000,   2,   1,0.96300,  11.4053,   1
 10022,'10022       ',  24.0000,2,     0.000,     0.000,   2,   1,0.92900,   4.5565,   1
 10023,'10023       ',  13.8000,2,     0.000,     0.000,   2,   1,0.98290,  -4.4123,   1
 10024,'10024       ',  24.0000,2,     0.000,     0.000,   2,   1,1.05220,  10.0049,   1
 10025,'10025       ',  18.0000,2,     0.000,     0.000,   2,   1,1.00770,   5.6349,   1
 10026,'10026       ',  24.0000,2,     0.000,     0.000,   2,   1,1.05220,   5.9475,   1
 10027,'10027       ',  26.0000,2,     0.000,     0.000,   2,   1,1.06500,   5.3177,   1
 10028,'10028       ',  26.0000,2,     0.000,     0.000,   2,   1,1.06500,   4.2724,   1
 10029,'10029       ',  20.0000,2,     0.000,     0.000,   3,   1,1.05510,  -9.9250,   1
 10030,'10030       ',  26.0000,2,     0.000,     0.000,   3,   1,1.04350,  33.3344,   1
 10031,'10031       ',  20.0000,2,     0.000,     0.000,   3,   1,1.01500, -14.3669,   1
 10032,'10032       ',  24.0000,2,     0.000,     0.000,   3,   1,1.01000,  -1.8765,   1
 10033,'10033       ',  18.0000,2,     0.000,     0.000,   3,   1,1.00800, -10.1627,   1
 10034,'10034       ',  20.0000,2,     0.000,     0.000,   3,   1,1.00000, -10.2493,   1