0,   100.00, 30, 0, 1,  60.00     / PSS(R)E 30 RAW created by rawd30  MON, NOV 23 2020  14:23
 00/00/01                      100.0  0    0
 0
     1,'1           ', 115.0000,1,     0.000,     0.000,   1,   1,1.01800,   5.5110,   1
     2,'2           ', 115.0000,1,     0.000,     0.000,   1,   1,1.03009,   7.6986,   1
     3,'3           ', 230.0000,1,     0.000,     0.000,   1,   1,0.98525,   6.3421,   1
     4,'4           ', 345.0000,1,     0.000,     0.000,   1,   1,1.01541,   3.9356,   1
     5,'5           ', 115.0000,1,     0.000,     0.000,   1,   1,1.00630,   3.8823,   1
     6,'6           ', 115.0000,1,     0.000,     0.000,   1,   1,1.02359,   6.7584,   1
     7,'7           ', 230.0000,1,     0.000,     0.000,   1,   1,0.98210,   5.7387,   1
     8,'8           ', 115.0000,1,     0.000,     0.000,   1,   1,1.01529,   0.7785,   1
     9,'9           ', 115.0000,1,     0.000,     0.000,   1,   1,0.99288,   1.4822,   1
    10,'10          ', 230.0000,1,     0.000,     0.000,   1,   1,1.02049,  -0.4224,   1
    11,'11          ', 115.0000,1,     0.000,     0.000,   1,   1,1.00209,   0.9272,   1
    12,'12          ', 230.0000,1,     0.000,     0.000,   1,   1,0.98894,   4.4851,   1
    13,'13          ', 115.0000,1,     0.000,     0.000,   1,   1,0.99403,  -2.9062,   1
    14,'14          ', 115.0000,1,     0.000,     0.000,   1,   1,0.97998,  -8.2419,   1
    15,'15          ', 115.0000,1,     0.000,     0.000,   1,   1,1.01412, -12.9670,   1
    16,'16          ', 345.0000,1,     0.000,     0.000,   1,   1,1.00672,  -5.2904,   1
    17,'17          ', 115.0000,1,     0.000,     0.000,   1,   1,1.04626, -19.0615,   1
    19,'19          ', 230.0000,1,     0.000,     0.000,   1,   1,0.97054,  -0.8327,   1
    20,'20          ', 115.0000,1,     0.000,     0.000,   1,   1,1.00098,  -5.3279,   1
    21,'21          ', 230.0000,1,     0.000,     0.000,   1,   1,0.96730,  -0.1522,   1
    22,'22          ', 115.0000,1,     0.000,     0.000,   1,   1,0.99086,  -4.6486,   1
    23,'23          ', 115.0000,1,     0.000,     0.000,   1,   1,1.04780,   2.9871,   1
    24,'24          ', 230.0000,1,     0.000,     0.000,   1,   1,1.00083,   5.5561,   1
    25,'25          ', 115.0000,1,     0.000,     0.000,   1,   1,1.01315,  -0.1585,   1
    26,'26          ', 115.0000,1,     0.000,     0.000,   1,   1,0.98189,  -4.2167,   1
    27,'27          ', 115.0000,1,     0.000,     0.000,   1,   1,0.95601,  -8.3273,   1
    33,'33          ', 115.0000,1,     0.000,     0.000,   1,   1,0.99494, -17.0056,   1
    34,'34          ', 345.0000,1,     0.000,     0.000,   1,   1,1.01344, -11.8877,   1
    35,'35          ', 115.0000,1,     0.000,     0.000,   1,   1,0.97040, -35.4973,   1
    36,'36          ', 230.0000,1,     0.000,     0.000,   1,   1,0.98281, -31.3491,   1
    37,'37          ', 115.0000,1,     0.000,     0.000,   1,   1,0.99342, -15.7790,   1
    38,'38          ', 115.0000,1,     0.000,     0.000,   1,   1,0.98986, -17.7015,   1
    39,'39          ', 345.0000,1,     0.000,     0.000,   1,   1,1.03011,  -9.1181,   1
    40,'40          ', 115.0000,1,     0.000,     0.000,   1,   1,0.99323, -17.9801,   1
    41,'41          ', 115.0000,1,     0.000,     0.000,   1,   1,1.00064, -14.8450,   1
    42,'42          ', 345.0000,1,     0.000,     0.000,   1,   1,1.01759, -11.2719,   1
    43,'43          ', 115.0000,1,     0.000,     0.000,   1,   1,0.96549, -23.6977,   1
    44,'44          ', 115.0000,1,     0.000,     0.000,   1,   1,0.97678, -24.8306,   1
    45,'45          ', 230.0000,1,     0.000,     0.000,   1,   1,0.99036, -21.3124,   1
    46,'46          ', 345.0000,1,     0.000,     0.000,   1,   1,1.00278, -17.0571,   1
    47,'47          ', 115.0000,1,     0.000,     0.000,   1,   1,0.94247, -32.2472,   1
    48,'48          ', 115.0000,1,     0.000,     0.000,   1,   1,0.97768, -22.6433,   1
    49,'49          ', 115.0000,1,     0.000,     0.000,   1,   1,1.04071,  -3.6847,   1
    51,'51          ', 115.0000,1,     0.000,     0.000,   1,   1,0.99992, -11.3933,   1
    52,'52          ', 115.0000,1,     0.000,     0.000,   1,   1,0.96501, -17.0541,   1
    53,'53          ', 115.0000,1,     0.000,     0.000,   1,   1,0.95956, -24.8696,   1
    54,'54          ', 115.0000,1,     0.000,     0.000,   1,   1,0.97247, -23.2032,   1
    55,'55          ', 115.0000,1,     0.000,     0.000,   1,   1,0.99033, -18.0873,   1
    57,'57          ', 115.0000,1,     0.000,     0.000,   1,   1,1.02281, -14.1081,   1
    58,'58          ', 115.0000,1,     0.000,     0.000,   1,   1,0.97358, -12.2389,   1
    59,'59          ', 115.0000,1,     0.000,     0.000,   1,   1,0.95897, -11.5347,   1
    60,'60          ', 230.0000,1,     0.000,     0.000,   1,   1,1.00034, -15.6860,   1
    61,'61          ', 115.0000,1,     0.000,     0.000,   1,   1,0.97538,  -9.2681,   1
    62,'62          ', 230.0000,1,     0.000,     0.000,   1,   1,1.00527,  -6.6761,   1
    63,'63          ', 115.0000,1,     0.000,     0.000,   1,   1,0.95829, -28.0120,   1
    64,'64          ', 230.0000,1,     0.000,     0.000,   1,   1,0.93757, -22.1360,   1
    69,'69          ', 115.0000,1,     0.000,     0.000,   1,   1,0.93984, -35.3390,   1
    70,'70          ', 115.0000,1,     0.000,     0.000,   1,   1,0.91930, -47.7196,   1
    71,'71          ', 115.0000,1,     0.000,     0.000,   1,   1,0.95982, -40.7862,   1
    72,'72          ', 115.0000,1,     0.000,     0.000,   1,   1,0.95750, -37.7002,   1
    73,'73          ', 115.0000,1,     0.000,     0.000,   1,   1,0.95471, -35.4528,   1
    74,'74          ', 230.0000,1,     0.000,     0.000,   1,   1,0.96768, -30.5842,   1
    76,'76          ', 115.0000,1,     0.000,     0.000,   1,   1,0.96318, -36.7797,   1
    77,'77          ', 115.0000,1,     0.000,     0.000,   1,   1,0.97640, -34.4164,   1
    78,'78          ', 115.0000,1,     0.000,     0.000,   1,   1,0.98235, -33.2668,   1
    79,'79          ', 115.0000,1,     0.000,     0.000,   1,   1,0.96792, -34.4248,   1
    80,'80          ', 115.0000,1,     0.000,     0.000,   1,   1,0.97618, -34.2173,   1
    81,'81          ', 345.0000,1,     0.000,     0.000,   1,   1,1.01026, -26.1838,   1
    84,'84          ', 115.0000,1,     0.000,     0.000,   1,   1,1.02498, -24.5008,   1
    85,'85          ', 230.0000,1,     0.000,     0.000,   1,   1,0.97854, -25.2235,   1
    86,'86          ', 230.0000,1,     0.000,     0.000,   1,   1,0.97759, -20.6302,   1
    87,'87          ', 230.0000,1,     0.000,     0.000,   1,   1,0.97473, -12.2586,   1
    88,'88          ', 230.0000,1,     0.000,     0.000,   1,   1,0.99191, -29.0627,   1
    89,'89          ', 115.0000,1,     0.000,     0.000,   1,   1,1.01726, -16.2321,   1
    90,'90          ', 115.0000,1,     0.000,     0.000,   1,   1,1.00776, -16.1733,   1
    91,'91          ', 115.0000,1,     0.000,     0.000,   1,   1,1.05199, -14.3083,   1
    92,'92          ', 115.0000,1,     0.000,     0.000,   1,   1,1.05199, -10.0908,   1
    94,'94          ', 115.0000,1,     0.000,     0.000,   1,   1,0.97914, -14.3888,   1
    97,'97          ', 115.0000,1,     0.000,     0.000,   1,   1,1.01222, -19.2531,   1
    98,'98          ', 115.0000,1,     0.000,     0.000,   1,   1,1.00000, -21.2324,   1
    99,'99          ', 115.0000,1,     0.000,     0.000,   1,   1,0.98746, -28.5580,   1
   100,'100         ', 115.0000,1,     0.000,     0.000,   1,   1,1.00081, -20.9074,   1
   102,'102         ', 115.0000,1,     0.000,     0.000,   1,   1,0.99324, -21.9118,   1
   103,'103         ', 115.0000,1,     0.000,     0.000,   1,   1,1.02110, -17.6026,   1
   104,'104         ', 115.0000,1,     0.000,     0.000,   1,   1,0.98939, -24.6667,   1
   105,'105         ', 115.0000,1,     0.000,     0.000,   1,   1,1.01116, -18.7094,   1
   107,'107         ', 115.0000,1,     0.000,     0.000,   1,   1,0.99458, -22.7186,   1
   108,'108         ', 115.0000,1,     0.000,     0.000,   1,   1,0.98999, -28.5928,   1
   109,'109         ', 115.0000,1,     0.000,     0.000,   1,   1,0.95210, -36.0017,   1
   110,'110         ', 115.0000,1,     0.000,     0.000,   1,   1,0.95233, -34.1957,   1
   112,'112         ', 115.0000,1,     0.000,     0.000,   1,   1,0.94919, -39.3782,   1
   113,'113         ', 115.0000,1,     0.000,     0.000,   1,   1,0.93566, -35.1733,   1
   114,'114         ', 115.0000,1,     0.000,     0.000,   1,   1,0.95211, -39.2460,   1
   115,'115         ', 115.0000,1,     0.000,     0.000,   2,   2,0.85588,   6.2724,   1
   116,'116         ', 115.0000,1,     0.000,     0.000,   2,   2,1.03085,  15.4255,   1
   117,'117         ', 115.0000,1,     0.000,   406.250,   2,   2,0.83804,  24.7868,   1
   118,'118         ', 115.0000,1,     0.000,     0.000,   2,   2,0.83225,  26.3424,   1
   119,'119         ', 115.0000,1,     0.000,     0.000,   2,   2,1.04331,  45.2807,   1
   120,'120         ', 115.0000,1,     0.000,    68.750,   2,   2,1.00242,  38.9134,   1
   121,'121         ', 115.0000,1,     0.000,     0.000,   2,   2,0.77956,  10.4146,   1
   122,'122         ', 115.0000,1,     0.000,     0.000,   2,   2,0.84321,   3.3203,   1
   123,'123         ', 115.0000,1,     0.000,     0.000,   2,   2,0.94942,  -2.2023,   1
   124,'124         ', 115.0000,1,     0.000,     0.000,   2,   2,1.02327,  11.3620,   1
   125,'125         ', 115.0000,1,     0.000,     0.000,   2,   2,1.01024, -14.3635,   1
   126,'126         ', 115.0000,1,     0.000,     0.000,   2,   2,0.94932,  -8.5671,   1
   127,'127         ', 230.0000,1,     0.000,     0.000,   2,   2,0.96740, -14.2224,   1
   128,'128         ', 230.0000,1,     0.000,     0.000,   2,   2,0.97998, -10.9576,   1
   129,'129         ', 230.0000,1,     0.000,     0.000,   2,   2,0.97964,  -9.9577,   1
   130,'130         ', 230.0000,1,     0.000,     0.000,   2,   2,1.00024,   4.6523,   1
   131,'131         ', 230.0000,1,     0.000,     0.000,   2,   2,0.97272,   5.4936,   1
   132,'132         ', 230.0000,1,     0.000,     0.000,   2,   2,0.98911,   2.1895,   1
   133,'133         ', 230.0000,1,     0.000,     0.000,   2,   2,0.98608, -13.8007,   1
   134,'134         ', 230.0000,1,     0.000,     0.000,   2,   2,1.00042, -12.9329,   1
   135,'135         ', 230.0000,1,     0.000,     0.000,   2,   2,0.99763, -12.9334,   1
   136,'136         ', 230.0000,1,     0.000,     0.000,   2,   2,1.03409,  -5.7180,   1
   137,'137         ', 230.0000,1,     0.000,     0.000,   2,   2,1.03614, -13.5370,   1
   138,'138         ', 230.0000,1,     0.000,     0.000,   2,   2,1.05495, -25.4030,   1
   139,'139         ', 115.0000,1,     0.000,     0.000,   2,   2,0.99908, -15.7210,   1
   140,'140         ', 230.0000,1,     0.000,     0.000,   2,   2,1.02661, -15.6530,   1
   141,'141         ', 230.0000,1,     0.000,     0.000,   2,   2,1.05099, -10.8801,   1
   142,'142         ', 230.0000,1,     0.000,     0.000,   2,   2,0.98584, -13.0888,   1
   143,'143         ', 230.0000,1,     0.000,     0.000,   2,   2,1.04347,  -3.4707,   1
   144,'144         ', 230.0000,1,     0.000,     0.000,   2,   2,1.00600,  -6.4279,   1
   145,'145         ', 230.0000,1,     0.000,     0.000,   2,   2,0.98632,  -9.6845,   1
   146,'146         ', 230.0000,1,     0.000,     0.000,   2,   2,1.05279,  -4.6570,   1
   147,'147         ', 230.0000,1,     0.000,     0.000,   2,   2,1.05280,   0.2994,   1
   148,'148         ', 230.0000,1,     0.000,     0.000,   2,   2,1.04523,  -8.4280,   1
   149,'149         ', 230.0000,1,     0.000,     0.000,   2,   2,1.07349,  -2.2282,   1
   150,'150         ', 230.0000,1,     0.000,     0.000,   2,   2,0.97266,   5.8546,   1
   151,'151         ', 230.0000,1,     0.000,     0.000,   2,   2,0.99049,   2.8922,   1
   152,'152         ', 230.0000,1,     0.000,     0.000,   2,   2,1.05350,   3.5953,   1
   153,'153         ', 230.0000,1,     0.000,     0.000,   2,   2,1.04350,   4.0823,   1
   154,'154         ', 115.0000,1,     0.000,    43.125,   2,   2,0.95991, -11.7442,   1
   155,'155         ', 230.0000,1,     0.000,     0.000,   2,   2,0.99295,  -1.4287,   1
   156,'156         ', 115.0000,1,     0.000,     0.000,   2,   2,0.96299,  -3.5184,   1
   157,'157         ', 230.0000,1,     0.000,     0.000,   2,   2,0.85681,   5.9533,   1
   158,'158         ', 230.0000,1,     0.000,     0.000,   2,   2,0.89956,   5.6408,   1
   159,'159         ', 230.0000,1,     0.000,     0.000,   2,   2,0.84387,  11.7039,   1
   160,'160         ', 230.0000,1,     0.000,     0.000,   2,   2,0.95741,   8.7274,   1
   161,'161         ', 230.0000,1,     0.000,     0.000,   2,   2,1.02609,   1.8097,   1
   162,'162         ', 230.0000,1,     0.000,     0.000,   2,   2,0.94379,  14.5042,   1
   163,'163         ', 230.0000,1,     0.000,     0.000,   2,   2,1.00978,  -7.4351,   1
   164,'164         ', 230.0000,1,     0.000,  -265.000,   2,   2,0.94100,   2.2560,   1
   165,'165         ', 230.0000,1,     0.000,     0.000,   2,   2,0.96649,  25.1564,   1
   166,'166         ', 230.0000,1,     0.000,  -128.750,   2,   2,0.97513,  30.3631,   1
   167,'167         ', 230.0000,1,     0.000,     0.000,   2,   2,0.93500, -13.1591,   1
   168,'168         ', 230.0000,1,     0.000,     0.000,   2,   2,0.98006, -10.9922,   1
   169,'169         ', 230.0000,1,     0.000,     0.000,   2,   2,0.95971, -13.1284,   1
   170,'170         ', 115.0000,1,     0.000,     0.000,   2,   2,0.92898,  -1.9116,   1
   171,'171         ', 115.0000,1,     0.000,     0.000,   2,   2,0.98286, -19.5136,   1
   172,'172         ', 115.0000,1,     0.000,     0.000,   2,   2,1.00121, -18.8566,   1
   173,'173         ', 115.0000,1,     0.000,    66.250,   2,   2,0.93071, -27.2746,   1
   174,'174         ', 115.0000,1,     0.000,     0.000,   2,   2,1.05136, -14.3148,   1
   175,'175         ', 115.0000,1,     0.000,     0.000,   2,   2,0.92921, -19.1797,   1
   176,'176         ', 115.0000,1,     0.000,     0.000,   2,   2,1.05219,  -4.1053,   1
   177,'177         ', 115.0000,1,     0.000,     0.000,   2,   2,1.00769,  -9.3051,   1
   178,'178         ', 115.0000,1,     0.000,     0.000,   2,   2,0.89641, -18.2362,   1
   179,'179         ', 115.0000,1,     0.000,    56.250,   2,   2,0.92160, -21.8007,   1
   180,'180         ', 115.0000,1,     0.000,     0.000,   2,   2,0.94772, -13.5546,   1
   181,'181         ', 230.0000,1,     0.000,     0.000,   2,   2,1.04169, -14.1883,   1
   182,'182         ', 230.0000,1,     0.000,     0.000,   2,   2,1.02781, -16.5800,   1
   183,'183         ', 115.0000,1,     0.000,     0.000,   2,   2,0.96916,  -0.1761,   1
   184,'184         ', 230.0000,1,     0.000,     0.000,   2,   2,1.02852, -11.3972,   1
   185,'185         ', 230.0000,1,     0.000,     0.000,   2,   2,1.05219,  -8.2363,   1
   186,'186         ', 230.0000,1,     0.000,     0.000,   2,   2,1.06496,  -9.4196,   1
   187,'187         ', 230.0000,1,     0.000,     0.000,   2,   2,1.06495, -10.7109,   1
   188,'188         ', 230.0000,1,     0.000,     0.000,   2,   2,1.04465, -13.3489,   1
   189,'189         ',  66.0000,1,     0.000,     0.000,   3,   3,0.98079, -35.2988,   1
   190,'190         ', 345.0000,1,     0.000,  -187.500,   3,   3,1.05507, -28.0271,   1
   191,'191         ', 230.0000,1,     0.000,     0.000,   3,   3,1.04338,  18.7198,   1
   192,'192         ', 230.0000,1,     0.000,     0.000,   3,   3,0.85581, -14.2514,   1
   193,'192         ',  66.0000,1,     0.000,     0.000,   3,   3,0.96862, -36.0270,   1
   194,'194         ', 345.0000,1,     0.000,     0.000,   3,   3,1.02985, -26.3440,   1
   195,'195         ', 345.0000,1,     0.000,     0.000,   3,   3,1.02079, -28.4203,   1
   196,'196         ', 115.0000,1,     0.000,     0.000,   3,   3,0.95254, -34.1552,   1
   197,'197         ', 115.0000,1,     0.000,     0.000,   3,   3,0.97892, -32.2296,   1
   198,'198         ', 115.0000,1,     0.000,     0.000,   3,   3,1.01498, -28.3502,   1
   199,'199         ', 115.0000,1,     0.000,     0.000,   3,   3,0.93246, -35.2329,   1
   200,'200         ', 115.0000,1,     0.000,     0.000,   3,   3,0.93580, -35.0685,   1
   201,'201         ',  66.0000,1,     0.000,     0.000,   1,   1,0.93926, -38.0429,   1
   202,'202         ',  66.0000,1,     0.000,     0.000,   3,   3,0.97400, -34.3180,   1
   203,'203         ', 115.0000,1,     0.000,     0.000,   3,   3,0.99618, -30.5471,   1
   204,'204         ',  66.0000,1,     0.000,     0.000,   3,   3,0.93827, -36.2474,   1
   205,'205         ',  66.0000,1,     0.000,     0.000,   3,   3,0.95736, -36.3181,   1
   206,'206         ',  66.0000,1,     0.000,     0.000,   3,   3,0.97642, -37.7339,   1
   207,'207         ',  66.0000,1,     0.000,     0.000,   1,   1,0.99371, -37.7361,   1
   208,'208         ',  66.0000,1,     0.000,     0.000,   3,   3,0.97338, -36.0619,   1
   209,'209         ',  66.0000,1,     0.000,     0.000,   3,   3,0.98478, -34.9947,   1
   210,'210         ', 115.0000,1,     0.000,     0.000,   3,   3,0.96570, -32.8901,   1
   211,'211         ', 115.0000,1,     0.000,     0.000,   3,   3,0.98928, -31.7484,   1
   212,'212         ', 138.0000,1,     0.000,     0.000,   3,   3,1.00065, -30.6413,   1
   213,'213         ',  16.5000,1,     0.000,     0.000,   3,   3,1.00999, -16.7931,   1
   214,'214         ', 138.0000,1,     0.000,     0.000,   3,   3,0.98758, -24.2100,   1
   215,'215         ', 138.0000,1,     0.000,     0.000,   3,   3,0.97565, -27.6320,   1
   216,'216         ', 138.0000,1,     0.000,     0.000,   3,   3,0.95794, -30.5136,   1
   217,'217         ', 138.0000,1,     0.000,     0.000,   3,   3,1.01141, -29.9827,   1
   218,'218         ', 138.0000,1,     0.000,     0.000,   3,   3,0.99731, -30.5109,   1
   219,'219         ', 345.0000,1,     0.000,     0.000,   3,   3,1.04709, -28.6528,   1
   220,'220         ', 138.0000,1,     0.000,     0.000,   3,   3,1.00799, -29.3542,   1
   221,'221         ', 138.0000,1,     0.000,     0.000,   3,   3,0.99997, -30.3472,   1
   222,'222         ',  20.0000,1,     0.000,     0.000,   3,   3,1.04998, -31.1227,   1
   223,'223         ', 138.0000,1,     0.000,     0.000,   3,   3,0.99409, -30.5951,   1
   224,'224         ', 230.0000,1,     0.000,     0.000,   3,   3,0.98084, -29.1361,   1
   225,'225         ', 230.0000,1,     0.000,     0.000,   3,   3,0.86801, -14.5077,   1
   226,'226         ', 230.0000,1,     0.000,     0.000,   3,   3,1.00225, -29.2035,   1
   227,'227         ',  27.0000,1,     0.000,     0.000,   3,   3,0.99996, -36.2287,   1
   228,'228         ', 138.0000,1,     0.000,     0.000,   3,   3,1.02911, -28.3307,   1
   229,'229         ', 138.0000,1,     0.000,     0.000,   3,   3,1.03912, -27.0701,   1
   230,'230         ',  20.0000,1,     0.000,     0.000,   3,   3,1.03999, -19.2863,   1
   231,'231         ', 345.0000,1,     0.000,  -375.000,   3,   3,1.04714, -28.7361,   1
   232,'232         ', 138.0000,1,     0.000,     0.000,   3,   3,1.03309, -31.2301,   1
   233,'233         ',  66.0000,1,     0.000,     0.000,   3,   3,0.99998, -34.5915,   1
   234,'234         ', 138.0000,1,     0.000,     0.000,   3,   3,1.02918, -28.2634,   1
   235,'235         ', 138.0000,1,     0.000,     0.000,   3,   3,1.00892, -28.4427,   1
   236,'236         ',  20.0000,1,     0.000,     0.000,   3,   3,1.01646, -21.2654,   1
   237,'237         ', 345.0000,1,     0.000,     0.000,   3,   3,1.04910, -28.5773,   1
   238,'238         ', 138.0000,1,     0.000,  -187.500,   3,   3,1.00997, -28.3415,   1
   239,'239         ', 138.0000,1,     0.000,     0.000,   3,   3,0.99999, -21.9348,   1
   240,'240         ', 230.0000,1,     0.000,  -175.000,   3,   3,1.01627, -27.4192,   1
   241,'241         ',  20.0000,1,     0.000,     0.000,   3,   3,1.05000, -22.7713,   1
   242,'242         ', 138.0000,1,     0.000,     0.000,   3,   3,0.99299, -24.2361,   1
   243,'243         ',  66.0000,1,     0.000,     0.000,   3,   3,1.00999, -26.3956,   1
   244,'244         ',  66.0000,1,     0.000,     0.000,   3,   3,0.98767, -27.5875,   1
   245,'245         ',  66.0000,1,     0.000,     0.000,   3,   3,0.96253, -28.4793,   1
   246,'246         ',  66.0000,1,     0.000,     0.000,   3,   3,0.95406, -29.5506,   1
   247,'247         ',  66.0000,1,     0.000,     0.000,   3,   3,0.95900, -29.4807,   1
   248,'248         ',  66.0000,1,     0.000,    57.000,   3,   3,0.96380, -34.0427,   1
   249,'249         ',  66.0000,1,     0.000,     0.000,   3,   3,0.96227, -34.5867,   1
   250,'250         ',  66.0000,1,     0.000,     0.000,   3,   3,1.01764, -32.2281,   1
   281,'281         ', 230.0000,1,     0.000,     0.000,   3,   3,1.01796, -27.3269,   1
   319,'319         ', 230.0000,1,     0.000,     0.000,   1,   1,1.01059,  -0.1754,   1
   320,'320         ', 115.0000,1,     0.000,     0.000,   1,   1,1.00189,  -4.8559,   1
   322,'322         ', 115.0000,1,     0.000,     0.000,   1,   1,0.99504, -25.0271,   1
   323,'323         ', 230.0000,1,     0.000,     0.000,   1,   1,0.96432, -19.9816,   1
   324,'324         ', 115.0000,1,     0.000,     0.000,   1,   1,0.96992, -32.5482,   1
   526,'526         ', 115.0000,1,     0.000,     0.000,   1,   1,0.92276, -49.5233,   1
   528,'528         ', 115.0000,1,     0.000,     0.000,   1,   1,0.94550, -50.9328,   1
   531,'531         ', 115.0000,1,     0.000,     0.000,   1,   1,0.94575, -39.7870,   1
   552,'552         ', 115.0000,1,     0.000,     0.000,   1,   1,0.99676, -32.3974,   1
   562,'562         ', 230.0000,1,     0.000,     0.000,   1,   1,0.92680, -38.6286,   1
   609,'609         ', 115.0000,1,     0.000,     0.000,   1,   1,0.94262, -39.3327,   1
   664,'664         ', 345.0000,1,     0.000,     0.000,   3,   3,1.00446, -23.4448,   1
  1190,'1190        ',  86.0000,1,     0.000,     0.000,   1,   1,1.03362,  43.7677,   1
  1200,'1200        ',  86.0000,1,     0.000,     0.000,   1,   1,0.99210,  40.5700,   1
  1201,'1201        ', 115.0000,1,     0.000,     0.000,   2,   2,1.31578,  50.8241,   1
  2040,'2040        ', 115.0000,1,     0.000,     0.000,   3,   3,0.94689, -23.9111,   1
  7001,'7001        ',  13.8000,1,     0.000,     0.000,   1,   1,1.05068,  11.6789,   1
  7002,'7002        ',  13.8000,1,     0.000,     0.000,   1,   1,1.05069,  13.7053,   1
  7003,'7003        ',  13.8000,1,     0.000,     0.000,   1,   1,1.03224,  15.4331,   1
  7011,'7011        ',  13.8000,1,     0.000,     0.000,   1,   1,1.01449,   4.1243,   1
  7012,'7012        ',  13.8000,1,     0.000,     0.000,   1,   1,1.05068,  12.5760,   1
  7017,'7017        ',  13.8000,1,     0.000,     0.000,   1,   1,1.05065, -15.6828,   1
  7023,'7023        ',  13.8000,1,     0.000,     0.000,   1,   1,1.05070,   5.7784,   1
  7024,'7024        ',  13.8000,1,     0.000,     0.000,   1,   1,1.02899,  13.8917,   1
  7039,'7039        ',  20.0000,1,     0.000,     0.000,   1,   1,1.04998,   1.1098,   1
  7044,'7044        ',  13.8000,1,     0.000,     0.000,   1,   1,1.01449, -20.2090,   1
  7049,'7049        ',  13.8000,1,     0.000,     0.000,   1,   1,1.05069,   0.5019,   1
  7055,'7055        ',  13.8000,1,     0.000,     0.000,   1,   1,0.99670, -11.9969,   1
  7057,'7057        ',  13.8000,1,     0.000,     0.000,   1,   1,1.02119,  -8.3050,   1
  7061,'7061        ',  13.8000,1,     0.000,     0.000,   1,   1,1.01448,  -2.3054,   1
  7062,'7062        ',  13.8000,1,     0.000,     0.000,   1,   1,1.00168,   2.1145,   1
  7071,'7071        ',  13.8000,1,     0.000,     0.000,   1,   1,0.98929, -34.9589,   1
  7130,'7130        ',  13.8000,1,     0.000,     0.000,   2,   2,1.05065,  22.0481,   1
  7139,'7139        ',  13.8000,1,     0.000,     0.000,   2,   2,1.05066,  -7.6546,   1
  7166,'7166        ',  13.8000,1,     0.000,     0.000,   2,   2,1.01447,  36.5903,   1
  9001,'9001        ', 115.0000,1,     0.000,     0.000,   1,   9,0.98974, -15.8059,   1
  9002,'9002        ',   6.6000,1,     0.000,     0.000,   1,   9,0.99450, -25.8268,   1
  9003,'9003        ',   6.6000,1,     0.175,     3.000,   1,   9,0.91739, -27.3971,   1
  9004,'9004        ',   6.6000,1,     0.000,     0.000,   1,   9,0.90857, -27.5886,   1
  9005,'9005        ', 115.0000,1,     0.000,     0.000,   1,   9,0.99016, -15.9079,   1
  9006,'9006        ',   6.6000,1,     0.000,     0.000,   1,   9,0.94680, -24.2285,   1
  9007,'9007        ',   6.6000,1,     0.000,     0.000,   1,   9,0.92963, -25.9877,   1
  9012,'9012        ',   6.6000,1,     0.000,     0.000,   1,   9,0.99428, -23.7165,   1
  9021,'9021        ',   6.6000,1,     0.000,     0.000,   1,   9,0.98723, -26.1021,   1
  9022,'9022        ',   0.6000,1,     0.100,     0.000,   1,   9,0.95686, -29.3476,   1
  9023,'9023        ',   6.6000,1,     0.000,     0.000,   1,   9,0.96954, -26.4870,   1
  9024,'9024        ',   0.6000,1,     0.087,     0.000,   1,   9,0.96398, -29.0545,   1
  9025,'9025        ',   0.6000,1,     0.025,     0.000,   1,   9,0.95695, -27.8306,   1
  9026,'9026        ',   0.6000,1,     0.025,     0.000,   1,   9,0.95803, -27.7173,   1
  9031,'9031        ',   0.6000,1,     0.125,     0.000,   1,   9,0.84363, -35.2491,   1
  9032,'9032        ',   0.6000,1,     0.087,     0.000,   1,   9,0.86219, -33.4518,   1
  9033,'9033        ',   0.6000,1,     0.125,     0.000,   1,   9,0.83904, -35.7342,   1
  9034,'9034        ',   0.6000,1,     0.100,     2.150,   1,   9,0.93181, -29.3890,   1
  9035,'9035        ',   0.6000,1,     0.113,     0.000,   1,   9,0.87153, -32.4732,   1
  9036,'9036        ',   2.3000,1,     0.000,     0.000,   1,   9,0.88451, -31.7390,   1
  9037,'9037        ',   0.6000,1,     0.125,     0.000,   1,   9,0.88100, -31.5974,   1
  9038,'9038        ',   0.6000,1,     0.175,     0.000,   1,   9,0.85478, -34.3234,   1
  9041,'9041        ',   0.6000,1,     0.063,     0.000,   1,   9,0.89046, -29.7577,   1
  9042,'9042        ',   0.6000,1,     0.050,     0.000,   1,   9,0.87183, -31.4673,   1
  9043,'9043        ',   2.3000,1,     0.000,     0.000,   1,   9,0.89192, -29.9203,   1
  9044,'9044        ',   6.6000,1,     0.000,     0.000,   1,   9,0.91153, -27.5328,   1
  9051,'9051        ',  13.8000,1,     0.000,     0.000,   1,   9,1.00000, -26.4917,   1
  9052,'9052        ',  13.8000,1,     0.000,     0.000,   1,   9,0.92045, -23.9657,   1
  9053,'9053        ',  13.8000,1,     0.000,     0.000,   1,   9,1.00000, -24.1238,   1
  9054,'9054        ',  13.8000,1,     0.000,     0.000,   1,   9,1.00000, -10.1158,   1
  9055,'9055        ',  13.8000,1,     0.000,     0.000,   1,   9,1.00000, -11.0328,   1
  9071,'9071        ',   0.6000,1,     0.063,     0.000,   1,   9,0.90797, -28.5289,   1
  9072,'9072        ',   0.6000,1,     0.063,     0.000,   1,   9,0.91489, -27.7365,   1
  9121,'9121        ',   6.6000,1,     0.000,     0.000,   1,   9,0.96565, -26.3051,   1
  9533,'9533        ',   2.3000,1,     0.125,     0.000,   1,   9,1.03975, -24.7665,   1
 10000,'10000       ',  13.8000,2,     0.000,     0.000,   1,   1,1.01530,   0.7785,   1
 10001,'10001       ',  13.8000,2,     0.000,     0.000,   1,   1,1.02050,  -0.4225,   1
 10002,'10002       ',  13.8000,2,     0.000,     0.000,   1,   1,1.00100,  -5.3280,   1
 10003,'10003       ',  13.8000,2,     0.000,     0.000,   1,   1,0.95830, -28.0120,   1
 10004,'10004       ',  13.8000,2,     0.000,     0.000,   1,   1,0.96320, -36.7797,   1
 10005,'10005       ',  20.0000,2,     0.000,     0.000,   1,   1,1.02500, -24.4982,   1
 10006,'10006       ',  18.0000,2,     0.000,     0.000,   1,   1,1.05200, -14.3072,   1
 10007,'10007       ',  24.0000,2,     0.000,     0.000,   1,   1,1.05200, -10.0889,   1
 10008,'10008       ',  15.5000,2,     0.000,     0.000,   1,   1,1.00000, -21.2320,   1
 10009,'10009       ',  18.0000,2,     0.000,     0.000,   1,   1,0.99000, -28.5920,   1
 10010,'10010       ',  26.0000,2,     0.000,     0.000,   2,   1,1.04350,  45.2935,   1
 10011,'10011       ',  24.0000,2,     0.000,     0.000,   2,   1,1.02330,  11.3636,   1
 10012,'10012       ',  13.8000,2,     0.000,     0.000,   2,   1,1.01030, -14.3635,   1
 10013,'10013       ',  26.0000,2,     0.000,     0.000,   2,   1,1.05500, -25.4090,   1
 10014,'10014       ',  24.0000,2,     0.000,     0.000,   2,   1,1.05100, -10.8783,   1
 10015,'10015       ',  26.0000,2,     0.000,     0.000,   2,   1,1.04350,  -3.4661,   1
 10016,'10016       ',  15.5000,2,     0.000,     0.000,   2,   1,1.05280,  -4.6564,   1
 10017,'10017       ',  24.0000,2,     0.000,     0.000,   2,   1,1.05280,   0.3008,   1
 10018,'10018       ',  18.0000,2,     0.000,     0.000,   2,   1,1.07350,  -2.2275,   1
 10019,'10019       ',  20.0000,2,     0.000,     0.000,   2,   1,1.05350,   3.5977,   1
 10020,'10020       ',  24.0000,2,     0.000,     0.000,   2,   1,1.04350,   4.0837,   1
 10021,'10021       ',  13.8000,2,     0.000,     0.000,   2,   1,0.96300,  -3.5184,   1
 10022,'10022       ',  24.0000,2,     0.000,     0.000,   2,   1,0.92900,  -1.9099,   1
 10023,'10023       ',  13.8000,2,     0.000,     0.000,   2,   1,0.98290, -19.5136,   1
 10024,'10024       ',  24.0000,2,     0.000,     0.000,   2,   1,1.05220,  -4.1038,   1
 10025,'10025       ',  18.0000,2,     0.000,     0.000,   2,   1,1.00770,  -9.3045,   1
 10026,'10026       ',  24.0000,2,     0.000,     0.000,   2,   1,1.05220,  -8.2350,   1
 10027,'10027       ',  26.0000,2,     0.000,     0.000,   2,   1,1.06500,  -9.4120,   1
 10028,'10028       ',  26.0000,2,     0.000,     0.000,   2,   1,1.06500, -10.7033,   1
 10029,'10029       ',  20.0000,2,     0.000,     0.000,   3,   1,1.05510, -28.0240,   1
 10030,'10030       ',  26.0000,2,     0.000,     0.000,   3,   1,1.04350,  18.7329,   1
 10031,'10031       ',  20.0000,2,     0.000,     0.000,   3,   1,1.01500, -28.3472,   1
 10032,'10032       ',  24.0000,2,     0.000,     0.000,   3,   1,1.01000, -16.7912,   1
 10033,'10033       ',  18.0000,2,     0.000,     0.000,   3,   1,1.00800, -29.3535,   1
 10034,'10034       ',  20.0000,2,     0.000,     0.000,   3,   1,1.00000, -30.3440,   1