0,   100.00, 30, 0, 1,  60.00     / PSS(R)E 30 RAW created by rawd30  MON, NOV 23 2020  14:25
 00/00/01                      100.0  0    0
 0
     1,'1           ', 115.0000,1,     0.000,     0.000,   1,   1,1.01548,   4.3036,   1
     2,'2           ', 115.0000,1,     0.000,     0.000,   1,   1,1.03106,   6.5057,   1
     3,'3           ', 230.0000,1,     0.000,     0.000,   1,   1,0.98575,   7.5186,   1
     4,'4           ', 345.0000,1,     0.000,     0.000,   1,   1,1.01533,   5.0856,   1
     5,'5           ', 115.0000,1,     0.000,     0.000,   1,   1,1.00289,   2.6644,   1
     6,'6           ', 115.0000,1,     0.000,     0.000,   1,   1,1.02459,   5.9125,   1
     7,'7           ', 230.0000,1,     0.000,     0.000,   1,   1,0.98235,   6.7936,   1
     8,'8           ', 115.0000,1,     0.000,     0.000,   1,   1,1.01529,  -1.2613,   1
     9,'9           ', 115.0000,1,     0.000,     0.000,   1,   1,0.98814,  -0.6181,   1
    10,'10          ', 230.0000,1,     0.000,     0.000,   1,   1,1.02049,  -2.1979,   1
    11,'11          ', 115.0000,1,     0.000,     0.000,   1,   1,0.99973,  -1.7644,   1
    12,'12          ', 230.0000,1,     0.000,     0.000,   1,   1,0.98613,   3.9275,   1
    13,'13          ', 115.0000,1,     0.000,     0.000,   1,   1,0.99161,  -6.0976,   1
    14,'14          ', 115.0000,1,     0.000,     0.000,   1,   1,0.97245, -10.8946,   1
    15,'15          ', 115.0000,1,     0.000,     0.000,   1,   1,1.00901, -15.6604,   1
    16,'16          ', 345.0000,1,     0.000,     0.000,   1,   1,1.00457,  -4.2553,   1
    17,'17          ', 115.0000,1,     0.000,     0.000,   1,   1,1.02832, -24.9187,   1
    19,'19          ', 230.0000,1,     0.000,     0.000,   1,   1,0.96295,  -2.9111,   1
    20,'20          ', 115.0000,1,     0.000,     0.000,   1,   1,1.00098,  -8.8181,   1
    21,'21          ', 230.0000,1,     0.000,     0.000,   1,   1,0.96240,  -2.6236,   1
    22,'22          ', 115.0000,1,     0.000,     0.000,   1,   1,0.98821,  -8.7306,   1
    23,'23          ', 115.0000,1,     0.000,     0.000,   1,   1,1.04522,  -2.2709,   1
    24,'24          ', 230.0000,1,     0.000,     0.000,   1,   1,0.99892,   1.0511,   1
    25,'25          ', 115.0000,1,     0.000,     0.000,   1,   1,1.00672,  -5.5816,   1
    26,'26          ', 115.0000,1,     0.000,     0.000,   1,   1,0.97284,  -9.7066,   1
    27,'27          ', 115.0000,1,     0.000,     0.000,   1,   1,0.94457, -13.5523,   1
    33,'33          ', 115.0000,1,     0.000,     0.000,   1,   1,0.99679, -15.9240,   1
    34,'34          ', 345.0000,1,     0.000,     0.000,   1,   1,1.01593,  -9.0506,   1
    35,'35          ', 115.0000,1,     0.000,     0.000,   1,   1,0.96975, -24.8354,   1
    36,'36          ', 230.0000,1,     0.000,     0.000,   1,   1,0.98077, -19.2800,   1
    37,'37          ', 115.0000,1,     0.000,     0.000,   1,   1,0.99642, -15.5341,   1
    38,'38          ', 115.0000,1,     0.000,     0.000,   1,   1,0.99126, -16.7009,   1
    39,'39          ', 345.0000,1,     0.000,     0.000,   1,   1,1.03346,  -6.3342,   1
    40,'40          ', 115.0000,1,     0.000,     0.000,   1,   1,0.99433, -17.5534,   1
    41,'41          ', 115.0000,1,     0.000,     0.000,   1,   1,1.00419, -13.5395,   1
    42,'42          ', 345.0000,1,     0.000,     0.000,   1,   1,1.02110,  -8.2228,   1
    43,'43          ', 115.0000,1,     0.000,     0.000,   1,   1,0.96502, -21.2981,   1
    44,'44          ', 115.0000,1,     0.000,     0.000,   1,   1,0.97945, -19.8307,   1
    45,'45          ', 230.0000,1,     0.000,     0.000,   1,   1,0.99280, -14.9273,   1
    46,'46          ', 345.0000,1,     0.000,     0.000,   1,   1,1.01074, -10.8895,   1
    47,'47          ', 115.0000,1,     0.000,     0.000,   1,   1,0.93910, -26.5399,   1
    48,'48          ', 115.0000,1,     0.000,     0.000,   1,   1,0.97371, -24.7086,   1
    49,'49          ', 115.0000,1,     0.000,     0.000,   1,   1,1.04054,  -3.6051,   1
    51,'51          ', 115.0000,1,     0.000,     0.000,   1,   1,0.99977, -10.6346,   1
    52,'52          ', 115.0000,1,     0.000,     0.000,   1,   1,0.95854, -16.2368,   1
    53,'53          ', 115.0000,1,     0.000,     0.000,   1,   1,0.95782, -22.4559,   1
    54,'54          ', 115.0000,1,     0.000,     0.000,   1,   1,0.97196, -20.2583,   1
    55,'55          ', 115.0000,1,     0.000,     0.000,   1,   1,0.98597, -16.8055,   1
    57,'57          ', 115.0000,1,     0.000,     0.000,   1,   1,1.01557, -13.4774,   1
    58,'58          ', 115.0000,1,     0.000,     0.000,   1,   1,0.96297, -10.8062,   1
    59,'59          ', 115.0000,1,     0.000,     0.000,   1,   1,0.94711,  -9.8160,   1
    60,'60          ', 230.0000,1,     0.000,     0.000,   1,   1,0.99852,  -9.0361,   1
    61,'61          ', 115.0000,1,     0.000,     0.000,   1,   1,0.96628,  -7.1120,   1
    62,'62          ', 230.0000,1,     0.000,     0.000,   1,   1,0.99858,   0.4639,   1
    63,'63          ', 115.0000,1,     0.000,     0.000,   1,   1,0.95829, -20.2378,   1
    64,'64          ', 230.0000,1,     0.000,     0.000,   1,   1,0.93701, -14.5687,   1
    69,'69          ', 115.0000,1,     0.000,     0.000,   1,   1,0.93669, -20.6745,   1
    70,'70          ', 115.0000,1,     0.000,     0.000,   1,   1,0.92738, -36.8452,   1
    71,'71          ', 115.0000,1,     0.000,     0.000,   1,   1,0.95676, -31.3072,   1
    72,'72          ', 115.0000,1,     0.000,     0.000,   1,   1,0.95343, -27.4684,   1
    73,'73          ', 115.0000,1,     0.000,     0.000,   1,   1,0.95219, -25.6038,   1
    74,'74          ', 230.0000,1,     0.000,     0.000,   1,   1,0.96878, -20.1301,   1
    76,'76          ', 115.0000,1,     0.000,     0.000,   1,   1,0.96318, -26.4940,   1
    77,'77          ', 115.0000,1,     0.000,     0.000,   1,   1,0.97325, -23.7182,   1
    78,'78          ', 115.0000,1,     0.000,     0.000,   1,   1,0.97927, -22.6847,   1
    79,'79          ', 115.0000,1,     0.000,     0.000,   1,   1,0.96388, -23.4552,   1
    80,'80          ', 115.0000,1,     0.000,     0.000,   1,   1,0.96958, -20.4925,   1
    81,'81          ', 345.0000,1,     0.000,     0.000,   1,   1,1.01211, -11.1138,   1
    84,'84          ', 115.0000,1,     0.000,     0.000,   1,   1,1.02498, -15.1359,   1
    85,'85          ', 230.0000,1,     0.000,     0.000,   1,   1,0.97474, -30.9349,   1
    86,'86          ', 230.0000,1,     0.000,     0.000,   1,   1,0.96922, -26.2915,   1
    87,'87          ', 230.0000,1,     0.000,     0.000,   1,   1,0.96197, -16.5796,   1
    88,'88          ', 230.0000,1,     0.000,     0.000,   1,   1,0.99286, -16.2207,   1
    89,'89          ', 115.0000,1,     0.000,     0.000,   1,   1,1.01398, -20.2144,   1
    90,'90          ', 115.0000,1,     0.000,     0.000,   1,   1,1.00317, -19.0753,   1
    91,'91          ', 115.0000,1,     0.000,     0.000,   1,   1,1.05199, -20.2753,   1
    92,'92          ', 115.0000,1,     0.000,     0.000,   1,   1,1.05199, -15.9473,   1
    94,'94          ', 115.0000,1,     0.000,     0.000,   1,   1,0.97017, -19.2852,   1
    97,'97          ', 115.0000,1,     0.000,     0.000,   1,   1,1.00910, -25.4597,   1
    98,'98          ', 115.0000,1,     0.000,     0.000,   1,   1,1.00000, -28.2561,   1
    99,'99          ', 115.0000,1,     0.000,     0.000,   1,   1,0.98708, -34.2534,   1
   100,'100         ', 115.0000,1,     0.000,     0.000,   1,   1,0.99811, -27.3718,   1
   102,'102         ', 115.0000,1,     0.000,     0.000,   1,   1,0.98957, -28.2210,   1
   103,'103         ', 115.0000,1,     0.000,     0.000,   1,   1,1.01931, -23.3274,   1
   104,'104         ', 115.0000,1,     0.000,     0.000,   1,   1,0.98704, -30.8813,   1
   105,'105         ', 115.0000,1,     0.000,     0.000,   1,   1,1.00995, -23.9472,   1
   107,'107         ', 115.0000,1,     0.000,     0.000,   1,   1,0.98966, -26.6619,   1
   108,'108         ', 115.0000,1,     0.000,     0.000,   1,   1,0.98999, -34.4275,   1
   109,'109         ', 115.0000,1,     0.000,     0.000,   1,   1,0.94097, -37.0813,   1
   110,'110         ', 115.0000,1,     0.000,     0.000,   1,   1,0.94508, -37.4727,   1
   112,'112         ', 115.0000,1,     0.000,     0.000,   1,   1,0.93008, -36.6085,   1
   113,'113         ', 115.0000,1,     0.000,     0.000,   1,   1,0.92896, -31.2168,   1
   114,'114         ', 115.0000,1,     0.000,     0.000,   1,   1,0.93266, -35.7164,   1
   115,'115         ', 115.0000,1,     0.000,     0.000,   2,   2,0.92432,  27.8654,   1
   116,'116         ', 115.0000,1,     0.000,     0.000,   2,   2,1.03448,  34.9529,   1
   117,'117         ', 115.0000,1,     0.000,   325.000,   2,   2,0.91046,  41.5846,   1
   118,'118         ', 115.0000,1,     0.000,     0.000,   2,   2,0.90512,  42.8167,   1
   119,'119         ', 115.0000,1,     0.000,     0.000,   2,   2,1.04337,  58.8030,   1
   120,'120         ', 115.0000,1,     0.000,    55.000,   2,   2,1.01388,  54.0449,   1
   121,'121         ', 115.0000,1,     0.000,     0.000,   2,   2,0.84928,  31.7152,   1
   122,'122         ', 115.0000,1,     0.000,     0.000,   2,   2,0.90492,  25.1538,   1
   123,'123         ', 115.0000,1,     0.000,     0.000,   2,   2,0.97023,  19.9330,   1
   124,'124         ', 115.0000,1,     0.000,     0.000,   2,   2,1.02328,  31.6235,   1
   125,'125         ', 115.0000,1,     0.000,     0.000,   2,   2,1.01026,   8.3983,   1
   126,'126         ', 115.0000,1,     0.000,     0.000,   2,   2,0.97501,  12.4345,   1
   127,'127         ', 230.0000,1,     0.000,     0.000,   2,   2,0.99188,   6.8645,   1
   128,'128         ', 230.0000,1,     0.000,     0.000,   2,   2,1.00251,   7.4979,   1
   129,'129         ', 230.0000,1,     0.000,     0.000,   2,   2,1.00173,   8.2066,   1
   130,'130         ', 230.0000,1,     0.000,     0.000,   2,   2,1.01394,  12.2118,   1
   131,'131         ', 230.0000,1,     0.000,     0.000,   2,   2,0.97888,   8.3297,   1
   132,'132         ', 230.0000,1,     0.000,     0.000,   2,   2,1.00202,  11.1891,   1
   133,'133         ', 230.0000,1,     0.000,     0.000,   2,   2,1.00124,   6.5298,   1
   134,'134         ', 230.0000,1,     0.000,     0.000,   2,   2,1.01803,   8.9981,   1
   135,'135         ', 230.0000,1,     0.000,     0.000,   2,   2,1.01674,   9.6101,   1
   136,'136         ', 230.0000,1,     0.000,     0.000,   2,   2,1.04443,  16.5215,   1
   137,'137         ', 230.0000,1,     0.000,     0.000,   2,   2,1.04437,   9.3675,   1
   138,'138         ', 230.0000,1,     0.000,     0.000,   2,   2,1.05496,   0.1466,   1
   139,'139         ', 115.0000,1,     0.000,     0.000,   2,   2,1.01048,   8.9050,   1
   140,'140         ', 230.0000,1,     0.000,     0.000,   2,   2,1.04135,   8.0436,   1
   141,'141         ', 230.0000,1,     0.000,     0.000,   2,   2,1.05099,  12.7121,   1
   142,'142         ', 230.0000,1,     0.000,     0.000,   2,   2,1.01493,   8.1510,   1
   143,'143         ', 230.0000,1,     0.000,     0.000,   2,   2,1.04348,  14.2351,   1
   144,'144         ', 230.0000,1,     0.000,     0.000,   2,   2,0.99974,   1.5428,   1
   145,'145         ', 230.0000,1,     0.000,     0.000,   2,   2,1.00774,  11.2502,   1
   146,'146         ', 230.0000,1,     0.000,     0.000,   2,   2,1.05280,  16.5745,   1
   147,'147         ', 230.0000,1,     0.000,     0.000,   2,   2,1.05280,  21.1024,   1
   148,'148         ', 230.0000,1,     0.000,     0.000,   2,   2,1.05715,  10.7600,   1
   149,'149         ', 230.0000,1,     0.000,     0.000,   2,   2,1.07350,  16.2316,   1
   150,'150         ', 230.0000,1,     0.000,     0.000,   2,   2,0.98014,   9.1091,   1
   151,'151         ', 230.0000,1,     0.000,     0.000,   2,   2,1.00174,  11.0924,   1
   152,'152         ', 230.0000,1,     0.000,     0.000,   2,   2,1.05350,  25.1884,   1
   153,'153         ', 230.0000,1,     0.000,     0.000,   2,   2,1.04350,  26.6114,   1
   154,'154         ', 115.0000,1,     0.000,    34.500,   2,   2,0.96730,  13.9272,   1
   155,'155         ', 230.0000,1,     0.000,     0.000,   2,   2,1.01106,  22.0377,   1
   156,'156         ', 115.0000,1,     0.000,     0.000,   2,   2,0.96300,  20.4396,   1
   157,'157         ', 230.0000,1,     0.000,     0.000,   2,   2,0.91850,  26.5937,   1
   158,'158         ', 230.0000,1,     0.000,     0.000,   2,   2,0.94223,  25.7964,   1
   159,'159         ', 230.0000,1,     0.000,     0.000,   2,   2,0.90777,  31.1498,   1
   160,'160         ', 230.0000,1,     0.000,     0.000,   2,   2,0.97689,  28.9528,   1
   161,'161         ', 230.0000,1,     0.000,     0.000,   2,   2,1.03358,  24.7139,   1
   162,'162         ', 230.0000,1,     0.000,     0.000,   2,   2,0.97687,  35.0980,   1
   163,'163         ', 230.0000,1,     0.000,     0.000,   2,   2,1.02800,  15.4132,   1
   164,'164         ', 230.0000,1,     0.000,  -212.000,   2,   2,0.97109,  24.7547,   1
   165,'165         ', 230.0000,1,     0.000,     0.000,   2,   2,0.98991,  44.0232,   1
   166,'166         ', 230.0000,1,     0.000,  -103.000,   2,   2,0.99087,  48.4594,   1
   167,'167         ', 230.0000,1,     0.000,     0.000,   2,   2,0.97062,   4.7269,   1
   168,'168         ', 230.0000,1,     0.000,     0.000,   2,   2,1.00251,   7.4874,   1
   169,'169         ', 230.0000,1,     0.000,     0.000,   2,   2,0.98483,   6.1070,   1
   170,'170         ', 115.0000,1,     0.000,     0.000,   2,   2,0.92899,   7.9265,   1
   171,'171         ', 115.0000,1,     0.000,     0.000,   2,   2,0.98288,   2.0506,   1
   172,'172         ', 115.0000,1,     0.000,     0.000,   2,   2,1.02315,   6.2692,   1
   173,'173         ', 115.0000,1,     0.000,    53.000,   2,   2,0.98142,  -0.4517,   1
   174,'174         ', 115.0000,1,     0.000,     0.000,   2,   2,1.06171,   9.9001,   1
   175,'175         ', 115.0000,1,     0.000,     0.000,   2,   2,0.97264,   4.1064,   1
   176,'176         ', 115.0000,1,     0.000,     0.000,   2,   2,1.05220,  18.0545,   1
   177,'177         ', 115.0000,1,     0.000,     0.000,   2,   2,1.00770,  13.3929,   1
   178,'178         ', 115.0000,1,     0.000,     0.000,   2,   2,0.93926,   5.0389,   1
   179,'179         ', 115.0000,1,     0.000,    45.000,   2,   2,0.96999,   1.8841,   1
   180,'180         ', 115.0000,1,     0.000,     0.000,   2,   2,0.97884,   8.3856,   1
   181,'181         ', 230.0000,1,     0.000,     0.000,   2,   2,1.04831,   9.0002,   1
   182,'182         ', 230.0000,1,     0.000,     0.000,   2,   2,1.04361,   7.6741,   1
   183,'183         ', 115.0000,1,     0.000,     0.000,   2,   2,0.97179,  23.2020,   1
   184,'184         ', 230.0000,1,     0.000,     0.000,   2,   2,1.03676,  10.6694,   1
   185,'185         ', 230.0000,1,     0.000,     0.000,   2,   2,1.05220,  13.4786,   1
   186,'186         ', 230.0000,1,     0.000,     0.000,   2,   2,1.06497,  13.1530,   1
   187,'187         ', 230.0000,1,     0.000,     0.000,   2,   2,1.06497,  12.0869,   1
   188,'188         ', 230.0000,1,     0.000,     0.000,   2,   2,1.05034,   9.7355,   1
   189,'189         ',  66.0000,1,     0.000,     0.000,   3,   3,0.99016, -17.5018,   1
   190,'190         ', 345.0000,1,     0.000,  -150.000,   3,   3,1.05510,  -2.3802,   1
   191,'191         ', 230.0000,1,     0.000,     0.000,   3,   3,1.04341,  49.0835,   1
   192,'192         ', 230.0000,1,     0.000,     0.000,   3,   3,0.89462,  20.7566,   1
   193,'192         ',  66.0000,1,     0.000,     0.000,   3,   3,0.97683, -19.1283,   1
   194,'194         ', 345.0000,1,     0.000,     0.000,   3,   3,1.03388,  -6.0953,   1
   195,'195         ', 345.0000,1,     0.000,     0.000,   3,   3,1.02122,  -8.2325,   1
   196,'196         ', 115.0000,1,     0.000,     0.000,   3,   3,0.95546, -15.8433,   1
   197,'197         ', 115.0000,1,     0.000,     0.000,   3,   3,0.98112, -13.7589,   1
   198,'198         ', 115.0000,1,     0.000,     0.000,   3,   3,1.01499, -10.1514,   1
   199,'199         ', 115.0000,1,     0.000,     0.000,   3,   3,0.94744, -15.3911,   1
   200,'200         ', 115.0000,1,     0.000,     0.000,   3,   3,0.95387, -14.6107,   1
   201,'201         ',  66.0000,1,     0.000,     0.000,   1,   1,0.93237, -22.8554,   1
   202,'202         ',  66.0000,1,     0.000,     0.000,   3,   3,0.97996, -15.1540,   1
   203,'203         ', 115.0000,1,     0.000,     0.000,   3,   3,0.99798, -12.0351,   1
   204,'204         ',  66.0000,1,     0.000,     0.000,   3,   3,0.95047, -19.2025,   1
   205,'205         ',  66.0000,1,     0.000,     0.000,   3,   3,0.96405, -19.7647,   1
   206,'206         ',  66.0000,1,     0.000,     0.000,   3,   3,0.95180, -27.2046,   1
   207,'207         ',  66.0000,1,     0.000,     0.000,   1,   1,0.95195, -30.1425,   1
   208,'208         ',  66.0000,1,     0.000,     0.000,   3,   3,0.98015, -19.3320,   1
   209,'209         ',  66.0000,1,     0.000,     0.000,   3,   3,0.99706, -16.7779,   1
   210,'210         ', 115.0000,1,     0.000,     0.000,   3,   3,0.97156, -14.0252,   1
   211,'211         ', 115.0000,1,     0.000,     0.000,   3,   3,0.98977, -13.1652,   1
   212,'212         ', 138.0000,1,     0.000,     0.000,   3,   3,1.00208, -11.2230,   1
   213,'213         ',  16.5000,1,     0.000,     0.000,   3,   3,1.01000,   5.0085,   1
   214,'214         ', 138.0000,1,     0.000,     0.000,   3,   3,0.99056,  -1.5422,   1
   215,'215         ', 138.0000,1,     0.000,     0.000,   3,   3,0.98341,  -4.6775,   1
   216,'216         ', 138.0000,1,     0.000,     0.000,   3,   3,0.97292,  -6.1649,   1
   217,'217         ', 138.0000,1,     0.000,     0.000,   3,   3,1.01832,  -4.2713,   1
   218,'218         ', 138.0000,1,     0.000,     0.000,   3,   3,1.00417,  -4.3563,   1
   219,'219         ', 345.0000,1,     0.000,     0.000,   3,   3,1.05097,  -3.6048,   1
   220,'220         ', 138.0000,1,     0.000,     0.000,   3,   3,1.00799,  -1.9959,   1
   221,'221         ', 138.0000,1,     0.000,     0.000,   3,   3,0.99998,  -1.6199,   1
   222,'222         ',  20.0000,1,     0.000,     0.000,   3,   3,1.04999,  -4.3516,   1
   223,'223         ', 138.0000,1,     0.000,     0.000,   3,   3,0.99539,  -1.8031,   1
   224,'224         ', 230.0000,1,     0.000,     0.000,   3,   3,0.98526,  -0.4074,   1
   225,'225         ', 230.0000,1,     0.000,     0.000,   3,   3,0.90058,  19.8550,   1
   226,'226         ', 230.0000,1,     0.000,     0.000,   3,   3,1.00410,  -1.3691,   1
   227,'227         ',  27.0000,1,     0.000,     0.000,   3,   3,0.99997,  -8.1639,   1
   228,'228         ', 138.0000,1,     0.000,     0.000,   3,   3,1.04060,  -1.7537,   1
   229,'229         ', 138.0000,1,     0.000,     0.000,   3,   3,1.04801,  -0.7134,   1
   230,'230         ',  20.0000,1,     0.000,     0.000,   3,   3,1.04000,   6.1302,   1
   231,'231         ', 345.0000,1,     0.000,  -300.000,   3,   3,1.05140,  -3.0643,   1
   232,'232         ', 138.0000,1,     0.000,     0.000,   3,   3,1.03970,  -4.9197,   1
   233,'233         ',  66.0000,1,     0.000,     0.000,   3,   3,0.99999,  -6.6955,   1
   234,'234         ', 138.0000,1,     0.000,     0.000,   3,   3,1.03719,  -1.5208,   1
   235,'235         ', 138.0000,1,     0.000,     0.000,   3,   3,1.00940,  -1.1469,   1
   236,'236         ',  20.0000,1,     0.000,     0.000,   3,   3,1.01647,   4.6302,   1
   237,'237         ', 345.0000,1,     0.000,     0.000,   3,   3,1.05324,  -3.0505,   1
   238,'238         ', 138.0000,1,     0.000,  -150.000,   3,   3,1.00998,  -1.0477,   1
   239,'239         ', 138.0000,1,     0.000,     0.000,   3,   3,0.99999,   4.6237,   1
   240,'240         ', 230.0000,1,     0.000,  -140.000,   3,   3,1.02377,  -1.8974,   1
   241,'241         ',  20.0000,1,     0.000,     0.000,   3,   3,1.05000,   2.0782,   1
   242,'242         ', 138.0000,1,     0.000,     0.000,   3,   3,0.99299,  -1.4941,   1
   243,'243         ',  66.0000,1,     0.000,     0.000,   3,   3,1.00999,  -2.8847,   1
   244,'244         ',  66.0000,1,     0.000,     0.000,   3,   3,0.99151,  -3.9559,   1
   245,'245         ',  66.0000,1,     0.000,     0.000,   3,   3,0.97013,  -4.8674,   1
   246,'246         ',  66.0000,1,     0.000,     0.000,   3,   3,0.96368,  -5.7024,   1
   247,'247         ',  66.0000,1,     0.000,     0.000,   3,   3,0.96633,  -6.1084,   1
   248,'248         ',  66.0000,1,     0.000,    45.600,   3,   3,0.96596, -11.2335,   1
   249,'249         ',  66.0000,1,     0.000,     0.000,   3,   3,0.96514, -11.6668,   1
   250,'250         ',  66.0000,1,     0.000,     0.000,   3,   3,1.00990,  -9.7713,   1
   281,'281         ', 230.0000,1,     0.000,     0.000,   3,   3,1.02512,  -1.8246,   1
   319,'319         ', 230.0000,1,     0.000,     0.000,   1,   1,1.00859,  -5.4482,   1
   320,'320         ', 115.0000,1,     0.000,     0.000,   1,   1,0.99544, -10.4375,   1
   322,'322         ', 115.0000,1,     0.000,     0.000,   1,   1,0.99331, -31.2875,   1
   323,'323         ', 230.0000,1,     0.000,     0.000,   1,   1,0.95373, -25.5419,   1
   324,'324         ', 115.0000,1,     0.000,     0.000,   1,   1,0.96652, -38.9050,   1
   526,'526         ', 115.0000,1,     0.000,     0.000,   1,   1,0.95165, -36.9359,   1
   528,'528         ', 115.0000,1,     0.000,     0.000,   1,   1,0.94884, -39.3873,   1
   531,'531         ', 115.0000,1,     0.000,     0.000,   1,   1,0.93997, -29.8506,   1
   552,'552         ', 115.0000,1,     0.000,     0.000,   1,   1,0.99567, -21.4175,   1
   562,'562         ', 230.0000,1,     0.000,     0.000,   1,   1,0.94668, -26.4865,   1
   609,'609         ', 115.0000,1,     0.000,     0.000,   1,   1,0.93383, -29.3373,   1
   664,'664         ', 345.0000,1,     0.000,     0.000,   3,   3,1.01542,  -3.8156,   1
  1190,'1190        ',  86.0000,1,     0.000,     0.000,   1,   1,1.03236,  57.0917,   1
  1200,'1200        ',  86.0000,1,     0.000,     0.000,   1,   1,1.00229,  55.8764,   1
  1201,'1201        ', 115.0000,1,     0.000,     0.000,   2,   2,1.23158,  66.4334,   1
  2040,'2040        ', 115.0000,1,     0.000,     0.000,   3,   3,0.95033,  -5.7117,   1
  7001,'7001        ',  13.8000,1,     0.000,     0.000,   1,   1,1.05068,   9.7782,   1
  7002,'7002        ',  13.8000,1,     0.000,     0.000,   1,   1,1.05069,  11.8160,   1
  7003,'7003        ',  13.8000,1,     0.000,     0.000,   1,   1,1.03225,  15.5598,   1
  7011,'7011        ',  13.8000,1,     0.000,     0.000,   1,   1,1.01449,   1.0738,   1
  7012,'7012        ',  13.8000,1,     0.000,     0.000,   1,   1,1.05068,  11.1095,   1
  7017,'7017        ',  13.8000,1,     0.000,     0.000,   1,   1,1.05064, -21.8741,   1
  7023,'7023        ',  13.8000,1,     0.000,     0.000,   1,   1,1.05070,   0.2074,   1
  7024,'7024        ',  13.8000,1,     0.000,     0.000,   1,   1,1.02899,   8.4430,   1
  7039,'7039        ',  20.0000,1,     0.000,     0.000,   1,   1,1.04998,   2.6853,   1
  7044,'7044        ',  13.8000,1,     0.000,     0.000,   1,   1,1.01449, -15.7492,   1
  7049,'7049        ',  13.8000,1,     0.000,     0.000,   1,   1,1.05069,   0.5020,   1
  7055,'7055        ',  13.8000,1,     0.000,     0.000,   1,   1,0.99670, -11.3891,   1
  7057,'7057        ',  13.8000,1,     0.000,     0.000,   1,   1,1.02119,  -8.3025,   1
  7061,'7061        ',  13.8000,1,     0.000,     0.000,   1,   1,1.01448,  -0.8895,   1
  7062,'7062        ',  13.8000,1,     0.000,     0.000,   1,   1,1.00168,   8.2962,   1
  7071,'7071        ',  13.8000,1,     0.000,     0.000,   1,   1,0.98929, -26.1309,   1
  7130,'7130        ',  13.8000,1,     0.000,     0.000,   2,   2,1.05066,  27.3553,   1
  7139,'7139        ',  13.8000,1,     0.000,     0.000,   2,   2,1.05067,  15.9638,   1
  7166,'7166        ',  13.8000,1,     0.000,     0.000,   2,   2,1.01448,  53.8851,   1
  9001,'9001        ', 115.0000,1,     0.000,     0.000,   1,   9,0.99282, -15.5543,   1
  9002,'9002        ',   6.6000,1,     0.000,     0.000,   1,   9,0.99450, -23.4713,   1
  9003,'9003        ',   6.6000,1,     0.140,     2.400,   1,   9,0.95299, -24.4551,   1
  9004,'9004        ',   6.6000,1,     0.000,     0.000,   1,   9,0.94627, -24.6004,   1
  9005,'9005        ', 115.0000,1,     0.000,     0.000,   1,   9,0.99366, -15.6283,   1
  9006,'9006        ',   6.6000,1,     0.000,     0.000,   1,   9,0.97382, -22.0645,   1
  9007,'9007        ',   6.6000,1,     0.000,     0.000,   1,   9,0.96160, -23.3971,   1
  9012,'9012        ',   6.6000,1,     0.000,     0.000,   1,   9,0.99626, -21.8095,   1
  9021,'9021        ',   6.6000,1,     0.000,     0.000,   1,   9,0.98872, -23.6920,   1
  9022,'9022        ',   0.6000,1,     0.080,     0.000,   1,   9,0.96488, -26.2644,   1
  9023,'9023        ',   6.6000,1,     0.000,     0.000,   1,   9,0.97470, -24.0011,   1
  9024,'9024        ',   0.6000,1,     0.070,     0.000,   1,   9,0.97050, -26.0373,   1
  9025,'9025        ',   0.6000,1,     0.020,     0.000,   1,   9,0.96476, -25.0623,   1
  9026,'9026        ',   0.6000,1,     0.020,     0.000,   1,   9,0.96561, -24.9731,   1
  9031,'9031        ',   0.6000,1,     0.100,     0.000,   1,   9,0.89931, -30.1496,   1
  9032,'9032        ',   0.6000,1,     0.070,     0.000,   1,   9,0.91223, -28.8783,   1
  9033,'9033        ',   0.6000,1,     0.100,     0.000,   1,   9,0.89621, -30.4880,   1
  9034,'9034        ',   0.6000,1,     0.080,     1.720,   1,   9,0.96581, -25.9484,   1
  9035,'9035        ',   0.6000,1,     0.090,     0.000,   1,   9,0.91886, -28.1779,   1
  9036,'9036        ',   2.3000,1,     0.000,     0.000,   1,   9,0.92847, -27.6392,   1
  9037,'9037        ',   0.6000,1,     0.100,     0.000,   1,   9,0.92574, -27.5457,   1
  9038,'9038        ',   0.6000,1,     0.140,     0.000,   1,   9,0.90708, -29.5012,   1
  9041,'9041        ',   0.6000,1,     0.050,     0.000,   1,   9,0.93255, -26.1973,   1
  9042,'9042        ',   0.6000,1,     0.040,     0.000,   1,   9,0.91876, -27.4386,   1
  9043,'9043        ',   2.3000,1,     0.000,     0.000,   1,   9,0.93370, -26.3110,   1
  9044,'9044        ',   6.6000,1,     0.000,     0.000,   1,   9,0.94852, -24.5579,   1
  9051,'9051        ',  13.8000,1,     0.000,     0.000,   1,   9,1.00000, -24.0670,   1
  9052,'9052        ',  13.8000,1,     0.000,     0.000,   1,   9,0.95692, -21.7985,   1
  9053,'9053        ',  13.8000,1,     0.000,     0.000,   1,   9,1.00000, -22.1853,   1
  9054,'9054        ',  13.8000,1,     0.000,     0.000,   1,   9,1.00000, -10.5178,   1
  9055,'9055        ',  13.8000,1,     0.000,     0.000,   1,   9,1.00000, -11.3264,   1
  9071,'9071        ',   0.6000,1,     0.050,     0.000,   1,   9,0.94511, -25.2914,   1
  9072,'9072        ',   0.6000,1,     0.050,     0.000,   1,   9,0.95032, -24.7033,   1
  9121,'9121        ',   6.6000,1,     0.000,     0.000,   1,   9,0.97371, -23.8589,   1
  9533,'9533        ',   2.3000,1,     0.100,     0.000,   1,   9,1.04052, -22.6991,   1
 10000,'10000       ',  13.8000,2,     0.000,     0.000,   1,   1,1.01530,  -1.2613,   1
 10001,'10001       ',  13.8000,2,     0.000,     0.000,   1,   1,1.02050,  -2.1979,   1
 10002,'10002       ',  13.8000,2,     0.000,     0.000,   1,   1,1.00100,  -8.8181,   1
 10003,'10003       ',  13.8000,2,     0.000,     0.000,   1,   1,0.95830, -20.2378,   1
 10004,'10004       ',  13.8000,2,     0.000,     0.000,   1,   1,0.96320, -26.4940,   1
 10005,'10005       ',  20.0000,2,     0.000,     0.000,   1,   1,1.02500, -15.1336,   1
 10006,'10006       ',  18.0000,2,     0.000,     0.000,   1,   1,1.05200, -20.2745,   1
 10007,'10007       ',  24.0000,2,     0.000,     0.000,   1,   1,1.05200, -15.9456,   1
 10008,'10008       ',  15.5000,2,     0.000,     0.000,   1,   1,1.00000, -28.2556,   1
 10009,'10009       ',  18.0000,2,     0.000,     0.000,   1,   1,0.99000, -34.4268,   1
 10010,'10010       ',  26.0000,2,     0.000,     0.000,   2,   1,1.04350,  58.8143,   1
 10011,'10011       ',  24.0000,2,     0.000,     0.000,   2,   1,1.02330,  31.6249,   1
 10012,'10012       ',  13.8000,2,     0.000,     0.000,   2,   1,1.01030,   8.3983,   1
 10013,'10013       ',  26.0000,2,     0.000,     0.000,   2,   1,1.05500,   0.1419,   1
 10014,'10014       ',  24.0000,2,     0.000,     0.000,   2,   1,1.05100,  12.7137,   1
 10015,'10015       ',  26.0000,2,     0.000,     0.000,   2,   1,1.04350,  14.2391,   1
 10016,'10016       ',  15.5000,2,     0.000,     0.000,   2,   1,1.05280,  16.5750,   1
 10017,'10017       ',  24.0000,2,     0.000,     0.000,   2,   1,1.05280,  21.1037,   1
 10018,'10018       ',  18.0000,2,     0.000,     0.000,   2,   1,1.07350,  16.2322,   1
 10019,'10019       ',  20.0000,2,     0.000,     0.000,   2,   1,1.05350,  25.1906,   1
 10020,'10020       ',  24.0000,2,     0.000,     0.000,   2,   1,1.04350,  26.6127,   1
 10021,'10021       ',  13.8000,2,     0.000,     0.000,   2,   1,0.96300,  20.4396,   1
 10022,'10022       ',  24.0000,2,     0.000,     0.000,   2,   1,0.92900,   7.9281,   1
 10023,'10023       ',  13.8000,2,     0.000,     0.000,   2,   1,0.98290,   2.0506,   1
 10024,'10024       ',  24.0000,2,     0.000,     0.000,   2,   1,1.05220,  18.0558,   1
 10025,'10025       ',  18.0000,2,     0.000,     0.000,   2,   1,1.00770,  13.3934,   1
 10026,'10026       ',  24.0000,2,     0.000,     0.000,   2,   1,1.05220,  13.4798,   1
 10027,'10027       ',  26.0000,2,     0.000,     0.000,   2,   1,1.06500,  13.1598,   1
 10028,'10028       ',  26.0000,2,     0.000,     0.000,   2,   1,1.06500,  12.0937,   1
 10029,'10029       ',  20.0000,2,     0.000,     0.000,   3,   1,1.05510,  -2.3775,   1
 10030,'10030       ',  26.0000,2,     0.000,     0.000,   3,   1,1.04350,  49.0951,   1
 10031,'10031       ',  20.0000,2,     0.000,     0.000,   3,   1,1.01500, -10.1488,   1
 10032,'10032       ',  24.0000,2,     0.000,     0.000,   3,   1,1.01000,   5.0102,   1
 10033,'10033       ',  18.0000,2,     0.000,     0.000,   3,   1,1.00800,  -1.9953,   1
 10034,'10034       ',  20.0000,2,     0.000,     0.000,   3,   1,1.00000,  -1.6170,   1