0,   100.00, 30, 0, 1,  60.00     / PSS(R)E 30 RAW created by rawd30  MON, NOV 23 2020  14:23
 00/00/01                      100.0  0    0
 0
     1,'1           ', 115.0000,1,     0.000,     0.000,   1,   1,1.02435,  11.0909,   1
     2,'2           ', 115.0000,1,     0.000,     0.000,   1,   1,1.03333,  12.9853,   1
     3,'3           ', 230.0000,1,     0.000,     0.000,   1,   1,0.99244,  11.7977,   1
     4,'4           ', 345.0000,1,     0.000,     0.000,   1,   1,1.02465,   9.5802,   1
     5,'5           ', 115.0000,1,     0.000,     0.000,   1,   1,1.01410,   9.6772,   1
     6,'6           ', 115.0000,1,     0.000,     0.000,   1,   1,1.02826,  12.1671,   1
     7,'7           ', 230.0000,1,     0.000,     0.000,   1,   1,0.98900,  11.3086,   1
     8,'8           ', 115.0000,1,     0.000,     0.000,   1,   1,1.01530,   6.9317,   1
     9,'9           ', 115.0000,1,     0.000,     0.000,   1,   1,0.99928,   7.6072,   1
    10,'10          ', 230.0000,1,     0.000,     0.000,   1,   1,1.02050,   5.9411,   1
    11,'11          ', 115.0000,1,     0.000,     0.000,   1,   1,1.00430,   7.1378,   1
    12,'12          ', 230.0000,1,     0.000,     0.000,   1,   1,0.99410,  10.2294,   1
    13,'13          ', 115.0000,1,     0.000,     0.000,   1,   1,0.99628,   3.8055,   1
    14,'14          ', 115.0000,1,     0.000,     0.000,   1,   1,0.99132,  -1.2108,   1
    15,'15          ', 115.0000,1,     0.000,     0.000,   1,   1,1.02644,  -5.5683,   1
    16,'16          ', 345.0000,1,     0.000,     0.000,   1,   1,1.02167,   1.1119,   1
    17,'17          ', 115.0000,1,     0.000,     0.000,   1,   1,1.05774, -10.6557,   1
    19,'19          ', 230.0000,1,     0.000,     0.000,   1,   1,0.97737,   5.5700,   1
    20,'20          ', 115.0000,1,     0.000,     0.000,   1,   1,1.00099,   1.7015,   1
    21,'21          ', 230.0000,1,     0.000,     0.000,   1,   1,0.97209,   6.2138,   1
    22,'22          ', 115.0000,1,     0.000,     0.000,   1,   1,0.99415,   2.2794,   1
    23,'23          ', 115.0000,1,     0.000,     0.000,   1,   1,1.04929,   8.9213,   1
    24,'24          ', 230.0000,1,     0.000,     0.000,   1,   1,1.00384,  11.1870,   1
    25,'25          ', 115.0000,1,     0.000,     0.000,   1,   1,1.01944,   6.1602,   1
    26,'26          ', 115.0000,1,     0.000,     0.000,   1,   1,0.99209,   2.6274,   1
    27,'27          ', 115.0000,1,     0.000,     0.000,   1,   1,0.96760,  -0.9249,   1
    33,'33          ', 115.0000,1,     0.000,     0.000,   1,   1,1.01665, -10.1206,   1
    34,'34          ', 345.0000,1,     0.000,     0.000,   1,   1,1.03200,  -5.1343,   1
    35,'35          ', 115.0000,1,     0.000,     0.000,   1,   1,0.97398, -24.1918,   1
    36,'36          ', 230.0000,1,     0.000,     0.000,   1,   1,0.99555, -20.7014,   1
    37,'37          ', 115.0000,1,     0.000,     0.000,   1,   1,1.01285,  -9.5191,   1
    38,'38          ', 115.0000,1,     0.000,     0.000,   1,   1,1.01211, -10.7653,   1
    39,'39          ', 345.0000,1,     0.000,     0.000,   1,   1,1.04568,  -2.6876,   1
    40,'40          ', 115.0000,1,     0.000,     0.000,   1,   1,1.01419, -11.0061,   1
    41,'41          ', 115.0000,1,     0.000,     0.000,   1,   1,1.02236,  -8.4533,   1
    42,'42          ', 345.0000,1,     0.000,     0.000,   1,   1,1.03572,  -4.5292,   1
    43,'43          ', 115.0000,1,     0.000,     0.000,   1,   1,0.99071, -15.2655,   1
    44,'44          ', 115.0000,1,     0.000,     0.000,   1,   1,0.99975, -15.8021,   1
    45,'45          ', 230.0000,1,     0.000,     0.000,   1,   1,1.01260, -12.6944,   1
    46,'46          ', 345.0000,1,     0.000,     0.000,   1,   1,1.02476,  -9.1952,   1
    47,'47          ', 115.0000,1,     0.000,     0.000,   1,   1,0.96705, -21.9012,   1
    48,'48          ', 115.0000,1,     0.000,     0.000,   1,   1,0.99447, -14.4109,   1
    49,'49          ', 115.0000,1,     0.000,     0.000,   1,   1,1.04515,  -2.2209,   1
    51,'51          ', 115.0000,1,     0.000,     0.000,   1,   1,1.01972,  -6.7883,   1
    52,'52          ', 115.0000,1,     0.000,     0.000,   1,   1,0.98915, -10.6005,   1
    53,'53          ', 115.0000,1,     0.000,     0.000,   1,   1,0.98555, -16.2169,   1
    54,'54          ', 115.0000,1,     0.000,     0.000,   1,   1,0.99604, -14.7665,   1
    55,'55          ', 115.0000,1,     0.000,     0.000,   1,   1,1.00833, -10.7578,   1
    57,'57          ', 115.0000,1,     0.000,     0.000,   1,   1,1.02997,  -6.4442,   1
    58,'58          ', 115.0000,1,     0.000,     0.000,   1,   1,0.98516,  -4.4621,   1
    59,'59          ', 115.0000,1,     0.000,     0.000,   1,   1,0.97148,  -3.7479,   1
    60,'60          ', 230.0000,1,     0.000,     0.000,   1,   1,1.01811,  -7.6176,   1
    61,'61          ', 115.0000,1,     0.000,     0.000,   1,   1,0.98503,  -1.7516,   1
    62,'62          ', 230.0000,1,     0.000,     0.000,   1,   1,1.01273,   0.6381,   1
    63,'63          ', 115.0000,1,     0.000,     0.000,   1,   1,0.95829, -17.7341,   1
    64,'64          ', 230.0000,1,     0.000,     0.000,   1,   1,0.94432, -12.6027,   1
    69,'69          ', 115.0000,1,     0.000,     0.000,   1,   1,0.95454, -23.9156,   1
    70,'70          ', 115.0000,1,     0.000,     0.000,   1,   1,0.93980, -34.7223,   1
    71,'71          ', 115.0000,1,     0.000,     0.000,   1,   1,0.97254, -28.8159,   1
    72,'72          ', 115.0000,1,     0.000,     0.000,   1,   1,0.96534, -26.1156,   1
    73,'73          ', 115.0000,1,     0.000,     0.000,   1,   1,0.97009, -24.3338,   1
    74,'74          ', 230.0000,1,     0.000,     0.000,   1,   1,0.98771, -20.2203,   1
    76,'76          ', 115.0000,1,     0.000,     0.000,   1,   1,0.96319, -25.1925,   1
    77,'77          ', 115.0000,1,     0.000,     0.000,   1,   1,0.98130, -23.2567,   1
    78,'78          ', 115.0000,1,     0.000,     0.000,   1,   1,0.98745, -22.2608,   1
    79,'79          ', 115.0000,1,     0.000,     0.000,   1,   1,0.97723, -23.2968,   1
    80,'80          ', 115.0000,1,     0.000,     0.000,   1,   1,0.98321, -23.0762,   1
    81,'81          ', 345.0000,1,     0.000,     0.000,   1,   1,1.02678, -16.3759,   1
    84,'84          ', 115.0000,1,     0.000,     0.000,   1,   1,1.02499, -14.5844,   1
    85,'85          ', 230.0000,1,     0.000,     0.000,   1,   1,0.98374, -15.8572,   1
    86,'86          ', 230.0000,1,     0.000,     0.000,   1,   1,0.98551, -11.8930,   1
    87,'87          ', 230.0000,1,     0.000,     0.000,   1,   1,0.98489,  -4.5440,   1
    88,'88          ', 230.0000,1,     0.000,     0.000,   1,   1,1.00819, -18.8443,   1
    89,'89          ', 115.0000,1,     0.000,     0.000,   1,   1,1.02666,  -8.7184,   1
    90,'90          ', 115.0000,1,     0.000,     0.000,   1,   1,1.02142,  -9.0951,   1
    91,'91          ', 115.0000,1,     0.000,     0.000,   1,   1,1.05200,  -6.6502,   1
    92,'92          ', 115.0000,1,     0.000,     0.000,   1,   1,1.05200,  -3.2621,   1
    94,'94          ', 115.0000,1,     0.000,     0.000,   1,   1,0.98762,  -6.4453,   1
    97,'97          ', 115.0000,1,     0.000,     0.000,   1,   1,1.01597, -10.8883,   1
    98,'98          ', 115.0000,1,     0.000,     0.000,   1,   1,1.00000, -12.4357,   1
    99,'99          ', 115.0000,1,     0.000,     0.000,   1,   1,0.98872, -18.7709,   1
   100,'100         ', 115.0000,1,     0.000,     0.000,   1,   1,1.00406, -12.2308,   1
   102,'102         ', 115.0000,1,     0.000,     0.000,   1,   1,0.99792, -13.0839,   1
   103,'103         ', 115.0000,1,     0.000,     0.000,   1,   1,1.02605,  -9.6917,   1
   104,'104         ', 115.0000,1,     0.000,     0.000,   1,   1,0.99337, -15.4410,   1
   105,'105         ', 115.0000,1,     0.000,     0.000,   1,   1,1.01850, -10.7001,   1
   107,'107         ', 115.0000,1,     0.000,     0.000,   1,   1,1.00498, -14.2060,   1
   108,'108         ', 115.0000,1,     0.000,     0.000,   1,   1,0.99000, -18.7725,   1
   109,'109         ', 115.0000,1,     0.000,     0.000,   1,   1,0.96721, -25.1050,   1
   110,'110         ', 115.0000,1,     0.000,     0.000,   1,   1,0.96591, -23.6394,   1
   112,'112         ', 115.0000,1,     0.000,     0.000,   1,   1,0.96413, -27.8269,   1
   113,'113         ', 115.0000,1,     0.000,     0.000,   1,   1,0.95916, -24.3719,   1
   114,'114         ', 115.0000,1,     0.000,     0.000,   1,   1,0.96654, -27.6851,   1
   115,'115         ', 115.0000,1,     0.000,     0.000,   2,   2,0.92111,  12.2202,   1
   116,'116         ', 115.0000,1,     0.000,     0.000,   2,   2,1.03526,  19.4980,   1
   117,'117         ', 115.0000,1,     0.000,   357.500,   2,   2,0.90769,  26.5316,   1
   118,'118         ', 115.0000,1,     0.000,     0.000,   2,   2,0.90140,  27.7288,   1
   119,'119         ', 115.0000,1,     0.000,     0.000,   2,   2,1.04337,  43.3316,   1
   120,'120         ', 115.0000,1,     0.000,    60.500,   2,   2,1.01830,  38.1982,   1
   121,'121         ', 115.0000,1,     0.000,     0.000,   2,   2,0.84449,  15.4645,   1
   122,'122         ', 115.0000,1,     0.000,     0.000,   2,   2,0.90378,   9.9554,   1
   123,'123         ', 115.0000,1,     0.000,     0.000,   2,   2,0.97148,   5.1146,   1
   124,'124         ', 115.0000,1,     0.000,     0.000,   2,   2,1.02328,  16.2319,   1
   125,'125         ', 115.0000,1,     0.000,     0.000,   2,   2,1.01026,  -4.8032,   1
   126,'126         ', 115.0000,1,     0.000,     0.000,   2,   2,0.97431,   0.0983,   1
   127,'127         ', 230.0000,1,     0.000,     0.000,   2,   2,0.98697,  -4.8167,   1
   128,'128         ', 230.0000,1,     0.000,     0.000,   2,   2,0.99434,  -2.1859,   1
   129,'129         ', 230.0000,1,     0.000,     0.000,   2,   2,0.99396,  -1.3308,   1
   130,'130         ', 230.0000,1,     0.000,     0.000,   2,   2,1.01214,  10.6870,   1
   131,'131         ', 230.0000,1,     0.000,     0.000,   2,   2,0.98111,  11.1826,   1
   132,'132         ', 230.0000,1,     0.000,     0.000,   2,   2,0.99975,   8.6369,   1
   133,'133         ', 230.0000,1,     0.000,     0.000,   2,   2,0.99612,  -4.5517,   1
   134,'134         ', 230.0000,1,     0.000,     0.000,   2,   2,1.01482,  -3.6811,   1
   135,'135         ', 230.0000,1,     0.000,     0.000,   2,   2,1.01341,  -3.6716,   1
   136,'136         ', 230.0000,1,     0.000,     0.000,   2,   2,1.04358,   2.5597,   1
   137,'137         ', 230.0000,1,     0.000,     0.000,   2,   2,1.04178,  -4.2539,   1
   138,'138         ', 230.0000,1,     0.000,     0.000,   2,   2,1.05496, -14.6235,   1
   139,'139         ', 115.0000,1,     0.000,     0.000,   2,   2,1.00649,  -6.1464,   1
   140,'140         ', 230.0000,1,     0.000,     0.000,   2,   2,1.03587,  -6.1052,   1
   141,'141         ', 230.0000,1,     0.000,     0.000,   2,   2,1.05099,  -1.8854,   1
   142,'142         ', 230.0000,1,     0.000,     0.000,   2,   2,1.00343,  -4.0324,   1
   143,'143         ', 230.0000,1,     0.000,     0.000,   2,   2,1.04348,   4.2016,   1
   144,'144         ', 230.0000,1,     0.000,     0.000,   2,   2,1.01292,   0.9167,   1
   145,'145         ', 230.0000,1,     0.000,     0.000,   2,   2,0.99982,  -1.0389,   1
   146,'146         ', 230.0000,1,     0.000,     0.000,   2,   2,1.05279,   3.4514,   1
   147,'147         ', 230.0000,1,     0.000,     0.000,   2,   2,1.05280,   7.8249,   1
   148,'148         ', 230.0000,1,     0.000,     0.000,   2,   2,1.05313,  -0.0684,   1
   149,'149         ', 230.0000,1,     0.000,     0.000,   2,   2,1.07349,   5.3429,   1
   150,'150         ', 230.0000,1,     0.000,     0.000,   2,   2,0.98158,  11.4900,   1
   151,'151         ', 230.0000,1,     0.000,     0.000,   2,   2,0.99968,   9.2047,   1
   152,'152         ', 230.0000,1,     0.000,     0.000,   2,   2,1.05350,  10.7545,   1
   153,'153         ', 230.0000,1,     0.000,     0.000,   2,   2,1.04350,  11.2052,   1
   154,'154         ', 115.0000,1,     0.000,    37.950,   2,   2,0.96458,  -2.6895,   1
   155,'155         ', 230.0000,1,     0.000,     0.000,   2,   2,1.00760,   6.3220,   1
   156,'156         ', 115.0000,1,     0.000,     0.000,   2,   2,0.96299,   4.5411,   1
   157,'157         ', 230.0000,1,     0.000,     0.000,   2,   2,0.91836,  11.9899,   1
   158,'158         ', 230.0000,1,     0.000,     0.000,   2,   2,0.94409,  11.6506,   1
   159,'159         ', 230.0000,1,     0.000,     0.000,   2,   2,0.90738,  16.4675,   1
   160,'160         ', 230.0000,1,     0.000,     0.000,   2,   2,0.97760,  14.1103,   1
   161,'161         ', 230.0000,1,     0.000,     0.000,   2,   2,1.03190,   9.1754,   1
   162,'162         ', 230.0000,1,     0.000,     0.000,   2,   2,0.97298,  19.5900,   1
   163,'163         ', 230.0000,1,     0.000,     0.000,   2,   2,1.02676,   1.0830,   1
   164,'164         ', 230.0000,1,     0.000,  -233.200,   2,   2,0.96636,   9.3946,   1
   165,'165         ', 230.0000,1,     0.000,     0.000,   2,   2,0.98713,  28.5223,   1
   166,'166         ', 230.0000,1,     0.000,  -113.300,   2,   2,0.98866,  32.9562,   1
   167,'167         ', 230.0000,1,     0.000,     0.000,   2,   2,0.95709,  -4.0933,   1
   168,'168         ', 230.0000,1,     0.000,     0.000,   2,   2,0.99439,  -2.2145,   1
   169,'169         ', 230.0000,1,     0.000,     0.000,   2,   2,0.97662,  -4.0025,   1
   170,'170         ', 115.0000,1,     0.000,     0.000,   2,   2,0.92899,   5.0625,   1
   171,'171         ', 115.0000,1,     0.000,     0.000,   2,   2,0.98288,  -9.5137,   1
   172,'172         ', 115.0000,1,     0.000,     0.000,   2,   2,1.01593,  -8.8313,   1
   173,'173         ', 115.0000,1,     0.000,    58.300,   2,   2,0.96424, -15.7915,   1
   174,'174         ', 115.0000,1,     0.000,     0.000,   2,   2,1.05832,  -4.8702,   1
   175,'175         ', 115.0000,1,     0.000,     0.000,   2,   2,0.95683,  -9.0920,   1
   176,'176         ', 115.0000,1,     0.000,     0.000,   2,   2,1.05220,   4.1704,   1
   177,'177         ', 115.0000,1,     0.000,     0.000,   2,   2,1.00769,  -0.3200,   1
   178,'178         ', 115.0000,1,     0.000,     0.000,   2,   2,0.92327,  -8.1996,   1
   179,'179         ', 115.0000,1,     0.000,    49.500,   2,   2,0.95193, -11.2898,   1
   180,'180         ', 115.0000,1,     0.000,     0.000,   2,   2,0.96731,  -4.3102,   1
   181,'181         ', 230.0000,1,     0.000,     0.000,   2,   2,1.04608,  -4.8142,   1
   182,'182         ', 230.0000,1,     0.000,     0.000,   2,   2,1.03752,  -6.9021,   1
   183,'183         ', 115.0000,1,     0.000,     0.000,   2,   2,0.97084,   7.4636,   1
   184,'184         ', 230.0000,1,     0.000,     0.000,   2,   2,1.03512,  -2.3230,   1
   185,'185         ', 230.0000,1,     0.000,     0.000,   2,   2,1.05220,   0.4658,   1
   186,'186         ', 230.0000,1,     0.000,     0.000,   2,   2,1.06497,  -0.6303,   1
   187,'187         ', 230.0000,1,     0.000,     0.000,   2,   2,1.06496,  -1.7587,   1
   188,'188         ', 230.0000,1,     0.000,     0.000,   2,   2,1.04845,  -4.0803,   1
   189,'189         ',  66.0000,1,     0.000,     0.000,   3,   3,0.99140, -23.8854,   1
   190,'190         ', 345.0000,1,     0.000,  -165.000,   3,   3,1.05509, -17.4867,   1
   191,'191         ', 230.0000,1,     0.000,     0.000,   3,   3,1.04342,  21.2608,   1
   192,'192         ', 230.0000,1,     0.000,     0.000,   3,   3,0.90929,  -5.7648,   1
   193,'192         ',  66.0000,1,     0.000,     0.000,   3,   3,0.98196, -24.3666,   1
   194,'194         ', 345.0000,1,     0.000,     0.000,   3,   3,1.04256, -16.3015,   1
   195,'195         ', 345.0000,1,     0.000,     0.000,   3,   3,1.03079, -18.0644,   1
   196,'196         ', 115.0000,1,     0.000,     0.000,   3,   3,0.96301, -23.0869,   1
   197,'197         ', 115.0000,1,     0.000,     0.000,   3,   3,0.98627, -21.3432,   1
   198,'198         ', 115.0000,1,     0.000,     0.000,   3,   3,1.01499, -17.8829,   1
   199,'199         ', 115.0000,1,     0.000,     0.000,   3,   3,0.94507, -23.8965,   1
   200,'200         ', 115.0000,1,     0.000,     0.000,   3,   3,0.94790, -23.7378,   1
   201,'201         ',  66.0000,1,     0.000,     0.000,   1,   1,0.95787, -26.0582,   1
   202,'202         ',  66.0000,1,     0.000,     0.000,   3,   3,0.98447, -23.1465,   1
   203,'203         ', 115.0000,1,     0.000,     0.000,   3,   3,1.00064, -19.8386,   1
   204,'204         ',  66.0000,1,     0.000,     0.000,   3,   3,0.95901, -24.2129,   1
   205,'205         ',  66.0000,1,     0.000,     0.000,   3,   3,0.97383, -24.4845,   1
   206,'206         ',  66.0000,1,     0.000,     0.000,   3,   3,0.99017, -26.1213,   1
   207,'207         ',  66.0000,1,     0.000,     0.000,   1,   1,1.00539, -26.2625,   1
   208,'208         ',  66.0000,1,     0.000,     0.000,   3,   3,0.98571, -24.4998,   1
   209,'209         ',  66.0000,1,     0.000,     0.000,   3,   3,0.99443, -23.6282,   1
   210,'210         ', 115.0000,1,     0.000,     0.000,   3,   3,0.97380, -21.8890,   1
   211,'211         ', 115.0000,1,     0.000,     0.000,   3,   3,0.99710, -20.9181,   1
   212,'212         ', 138.0000,1,     0.000,     0.000,   3,   3,1.00870, -19.9676,   1
   213,'213         ',  16.5000,1,     0.000,     0.000,   3,   3,1.01000,  -7.6706,   1
   214,'214         ', 138.0000,1,     0.000,     0.000,   3,   3,0.99022, -14.1862,   1
   215,'215         ', 138.0000,1,     0.000,     0.000,   3,   3,0.98246, -17.1991,   1
   216,'216         ', 138.0000,1,     0.000,     0.000,   3,   3,0.96853, -19.6940,   1
   217,'217         ', 138.0000,1,     0.000,     0.000,   3,   3,1.01758, -19.2278,   1
   218,'218         ', 138.0000,1,     0.000,     0.000,   3,   3,1.00347, -19.6805,   1
   219,'219         ', 345.0000,1,     0.000,     0.000,   3,   3,1.05219, -18.0969,   1
   220,'220         ', 138.0000,1,     0.000,     0.000,   3,   3,1.00799, -18.5943,   1
   221,'221         ', 138.0000,1,     0.000,     0.000,   3,   3,0.99998, -19.3770,   1
   222,'222         ',  20.0000,1,     0.000,     0.000,   3,   3,1.04998, -20.2241,   1
   223,'223         ', 138.0000,1,     0.000,     0.000,   3,   3,0.99552, -19.6006,   1
   224,'224         ', 230.0000,1,     0.000,     0.000,   3,   3,0.99401, -18.3197,   1
   225,'225         ', 230.0000,1,     0.000,     0.000,   3,   3,0.91853,  -6.0030,   1
   226,'226         ', 230.0000,1,     0.000,     0.000,   3,   3,1.01267, -18.4275,   1
   227,'227         ',  27.0000,1,     0.000,     0.000,   3,   3,0.99997, -24.6821,   1
   228,'228         ', 138.0000,1,     0.000,     0.000,   3,   3,1.03709, -17.7496,   1
   229,'229         ', 138.0000,1,     0.000,     0.000,   3,   3,1.04541, -16.6473,   1
   230,'230         ',  20.0000,1,     0.000,     0.000,   3,   3,1.03999,  -9.8285,   1
   231,'231         ', 345.0000,1,     0.000,  -330.000,   3,   3,1.05098, -18.1375,   1
   232,'232         ', 138.0000,1,     0.000,     0.000,   3,   3,1.03813, -20.3112,   1
   233,'233         ',  66.0000,1,     0.000,     0.000,   3,   3,0.99998, -23.2269,   1
   234,'234         ', 138.0000,1,     0.000,     0.000,   3,   3,1.03491, -17.6845,   1
   235,'235         ', 138.0000,1,     0.000,     0.000,   3,   3,1.00926, -17.8046,   1
   236,'236         ',  20.0000,1,     0.000,     0.000,   3,   3,1.01647, -11.5580,   1
   237,'237         ', 345.0000,1,     0.000,     0.000,   3,   3,1.05313, -18.0069,   1
   238,'238         ', 138.0000,1,     0.000,  -165.000,   3,   3,1.00998, -17.7108,   1
   239,'239         ', 138.0000,1,     0.000,     0.000,   3,   3,0.99999, -12.0703,   1
   240,'240         ', 230.0000,1,     0.000,  -154.000,   3,   3,1.02076, -16.9542,   1
   241,'241         ',  20.0000,1,     0.000,     0.000,   3,   3,1.05000, -12.9057,   1
   242,'242         ', 138.0000,1,     0.000,     0.000,   3,   3,0.99299, -14.1885,   1
   243,'243         ',  66.0000,1,     0.000,     0.000,   3,   3,1.00999, -16.0714,   1
   244,'244         ',  66.0000,1,     0.000,     0.000,   3,   3,0.99036, -17.1185,   1
   245,'245         ',  66.0000,1,     0.000,     0.000,   3,   3,0.96769, -17.8994,   1
   246,'246         ',  66.0000,1,     0.000,     0.000,   3,   3,0.96072, -18.8313,   1
   247,'247         ',  66.0000,1,     0.000,     0.000,   3,   3,0.96499, -18.7825,   1
   248,'248         ',  66.0000,1,     0.000,    50.160,   3,   3,0.97120, -22.8016,   1
   249,'249         ',  66.0000,1,     0.000,     0.000,   3,   3,0.97015, -23.2730,   1
   250,'250         ',  66.0000,1,     0.000,     0.000,   3,   3,1.01890, -21.2171,   1
   281,'281         ', 230.0000,1,     0.000,     0.000,   3,   3,1.02224, -16.8736,   1
   319,'319         ', 230.0000,1,     0.000,     0.000,   1,   1,1.01353,   6.1715,   1
   320,'320         ', 115.0000,1,     0.000,     0.000,   1,   1,1.00968,   2.0726,   1
   322,'322         ', 115.0000,1,     0.000,     0.000,   1,   1,0.99844, -15.7582,   1
   323,'323         ', 230.0000,1,     0.000,     0.000,   1,   1,0.97426, -11.3348,   1
   324,'324         ', 115.0000,1,     0.000,     0.000,   1,   1,0.97296, -22.2485,   1
   526,'526         ', 115.0000,1,     0.000,     0.000,   1,   1,0.93587, -36.2887,   1
   528,'528         ', 115.0000,1,     0.000,     0.000,   1,   1,0.96289, -37.4403,   1
   531,'531         ', 115.0000,1,     0.000,     0.000,   1,   1,0.95518, -27.9190,   1
   552,'552         ', 115.0000,1,     0.000,     0.000,   1,   1,0.99972, -21.5037,   1
   562,'562         ', 230.0000,1,     0.000,     0.000,   1,   1,0.96092, -26.9580,   1
   609,'609         ', 115.0000,1,     0.000,     0.000,   1,   1,0.95261, -27.5216,   1
   664,'664         ', 345.0000,1,     0.000,     0.000,   3,   3,1.02174, -13.8280,   1
  1190,'1190        ',  86.0000,1,     0.000,     0.000,   1,   1,1.03489,  42.0018,   1
  1200,'1200        ',  86.0000,1,     0.000,     0.000,   1,   1,1.00942,  39.6086,   1
  1201,'1201        ', 115.0000,1,     0.000,     0.000,   2,   2,1.24058,  49.6145,   1
  2040,'2040        ', 115.0000,1,     0.000,     0.000,   3,   3,0.95834, -12.7685,   1
  7001,'7001        ',  13.8000,1,     0.000,     0.000,   1,   1,1.05068,  16.4883,   1
  7002,'7002        ',  13.8000,1,     0.000,     0.000,   1,   1,1.05069,  18.2633,   1
  7003,'7003        ',  13.8000,1,     0.000,     0.000,   1,   1,1.03225,  19.7405,   1
  7011,'7011        ',  13.8000,1,     0.000,     0.000,   1,   1,1.01449,   9.9478,   1
  7012,'7012        ',  13.8000,1,     0.000,     0.000,   1,   1,1.05068,  17.3145,   1
  7017,'7017        ',  13.8000,1,     0.000,     0.000,   1,   1,1.05066,  -7.7120,   1
  7023,'7023        ',  13.8000,1,     0.000,     0.000,   1,   1,1.05070,  11.3766,   1
  7024,'7024        ',  13.8000,1,     0.000,     0.000,   1,   1,1.02899,  18.5023,   1
  7039,'7039        ',  20.0000,1,     0.000,     0.000,   1,   1,1.04998,   6.1767,   1
  7044,'7044        ',  13.8000,1,     0.000,     0.000,   1,   1,1.01450, -11.8253,   1
  7049,'7049        ',  13.8000,1,     0.000,     0.000,   1,   1,1.05069,   0.5031,   1
  7055,'7055        ',  13.8000,1,     0.000,     0.000,   1,   1,0.99670,  -5.4908,   1
  7057,'7057        ',  13.8000,1,     0.000,     0.000,   1,   1,1.02119,  -1.3697,   1
  7061,'7061        ',  13.8000,1,     0.000,     0.000,   1,   1,1.01449,   4.3186,   1
  7062,'7062        ',  13.8000,1,     0.000,     0.000,   1,   1,1.00168,   8.3179,   1
  7071,'7071        ',  13.8000,1,     0.000,     0.000,   1,   1,0.98929, -23.7516,   1
  7130,'7130        ',  13.8000,1,     0.000,     0.000,   2,   2,1.05066,  25.7736,   1
  7139,'7139        ',  13.8000,1,     0.000,     0.000,   2,   2,1.05067,   0.9019,   1
  7166,'7166        ',  13.8000,1,     0.000,     0.000,   2,   2,1.01448,  38.3644,   1
  9001,'9001        ', 115.0000,1,     0.000,     0.000,   1,   9,1.00906,  -9.5415,   1
  9002,'9002        ',   6.6000,1,     0.000,     0.000,   1,   9,0.99450, -18.0457,   1
  9003,'9003        ',   6.6000,1,     0.154,     2.640,   1,   9,0.96212, -19.0999,   1
  9004,'9004        ',   6.6000,1,     0.000,     0.000,   1,   9,0.95477, -19.2560,   1
  9005,'9005        ', 115.0000,1,     0.000,     0.000,   1,   9,1.00907,  -9.6227,   1
  9006,'9006        ',   6.6000,1,     0.000,     0.000,   1,   9,0.98503, -16.5226,   1
  9007,'9007        ',   6.6000,1,     0.000,     0.000,   1,   9,0.97157, -17.9580,   1
  9012,'9012        ',   6.6000,1,     0.000,     0.000,   1,   9,1.00004, -16.2599,   1
  9021,'9021        ',   6.6000,1,     0.000,     0.000,   1,   9,0.98813, -18.2883,   1
  9022,'9022        ',   0.6000,1,     0.088,     0.000,   1,   9,0.96171, -21.1283,   1
  9023,'9023        ',   6.6000,1,     0.000,     0.000,   1,   9,0.97265, -18.6278,   1
  9024,'9024        ',   0.6000,1,     0.077,     0.000,   1,   9,0.96792, -20.8753,   1
  9025,'9025        ',   0.6000,1,     0.022,     0.000,   1,   9,0.96165, -19.8010,   1
  9026,'9026        ',   0.6000,1,     0.022,     0.000,   1,   9,0.96260, -19.7022,   1
  9031,'9031        ',   0.6000,1,     0.110,     0.000,   1,   9,0.90285, -25.2841,   1
  9032,'9032        ',   0.6000,1,     0.077,     0.000,   1,   9,0.91726, -23.8960,   1
  9033,'9033        ',   0.6000,1,     0.110,     0.000,   1,   9,0.89937, -25.6542,   1
  9034,'9034        ',   0.6000,1,     0.088,     1.892,   1,   9,0.97660, -20.7138,   1
  9035,'9035        ',   0.6000,1,     0.099,     0.000,   1,   9,0.92462, -23.1337,   1
  9036,'9036        ',   2.3000,1,     0.000,     0.000,   1,   9,0.93520, -22.5445,   1
  9037,'9037        ',   0.6000,1,     0.110,     0.000,   1,   9,0.93222, -22.4464,   1
  9038,'9038        ',   0.6000,1,     0.154,     0.000,   1,   9,0.91151, -24.5750,   1
  9041,'9041        ',   0.6000,1,     0.055,     0.000,   1,   9,0.93976, -20.9849,   1
  9042,'9042        ',   0.6000,1,     0.044,     0.000,   1,   9,0.92459, -22.3327,   1
  9043,'9043        ',   2.3000,1,     0.000,     0.000,   1,   9,0.94101, -21.1066,   1
  9044,'9044        ',   6.6000,1,     0.000,     0.000,   1,   9,0.95723, -19.2105,   1
  9051,'9051        ',  13.8000,1,     0.000,     0.000,   1,   9,1.00000, -18.7180,   1
  9052,'9052        ',  13.8000,1,     0.000,     0.000,   1,   9,0.96346, -16.2630,   1
  9053,'9053        ',  13.8000,1,     0.000,     0.000,   1,   9,1.00000, -16.6790,   1
  9054,'9054        ',  13.8000,1,     0.000,     0.000,   1,   9,1.00000,  -4.6179,   1
  9055,'9055        ',  13.8000,1,     0.000,     0.000,   1,   9,1.00000,  -5.4097,   1
  9071,'9071        ',   0.6000,1,     0.055,     0.000,   1,   9,0.95355, -20.0038,   1
  9072,'9072        ',   0.6000,1,     0.055,     0.000,   1,   9,0.95926, -19.3681,   1
  9121,'9121        ',   6.6000,1,     0.000,     0.000,   1,   9,0.97522, -18.5022,   1
  9533,'9533        ',   2.3000,1,     0.110,     0.000,   1,   9,1.04021, -17.2443,   1
 10000,'10000       ',  13.8000,2,     0.000,     0.000,   1,   1,1.01530,   6.9317,   1
 10001,'10001       ',  13.8000,2,     0.000,     0.000,   1,   1,1.02050,   5.9411,   1
 10002,'10002       ',  13.8000,2,     0.000,     0.000,   1,   1,1.00100,   1.7014,   1
 10003,'10003       ',  13.8000,2,     0.000,     0.000,   1,   1,0.95830, -17.7341,   1
 10004,'10004       ',  13.8000,2,     0.000,     0.000,   1,   1,0.96320, -25.1925,   1
 10005,'10005       ',  20.0000,2,     0.000,     0.000,   1,   1,1.02500, -14.5821,   1
 10006,'10006       ',  18.0000,2,     0.000,     0.000,   1,   1,1.05200,  -6.6493,   1
 10007,'10007       ',  24.0000,2,     0.000,     0.000,   1,   1,1.05200,  -3.2604,   1
 10008,'10008       ',  15.5000,2,     0.000,     0.000,   1,   1,1.00000, -12.4352,   1
 10009,'10009       ',  18.0000,2,     0.000,     0.000,   1,   1,0.99000, -18.7717,   1
 10010,'10010       ',  26.0000,2,     0.000,     0.000,   2,   1,1.04350,  43.3428,   1
 10011,'10011       ',  24.0000,2,     0.000,     0.000,   2,   1,1.02330,  16.2334,   1
 10012,'10012       ',  13.8000,2,     0.000,     0.000,   2,   1,1.01030,  -4.8032,   1
 10013,'10013       ',  26.0000,2,     0.000,     0.000,   2,   1,1.05500, -14.6287,   1
 10014,'10014       ',  24.0000,2,     0.000,     0.000,   2,   1,1.05100,  -1.8838,   1
 10015,'10015       ',  26.0000,2,     0.000,     0.000,   2,   1,1.04350,   4.2057,   1
 10016,'10016       ',  15.5000,2,     0.000,     0.000,   2,   1,1.05280,   3.4519,   1
 10017,'10017       ',  24.0000,2,     0.000,     0.000,   2,   1,1.05280,   7.8262,   1
 10018,'10018       ',  18.0000,2,     0.000,     0.000,   2,   1,1.07350,   5.3435,   1
 10019,'10019       ',  20.0000,2,     0.000,     0.000,   2,   1,1.05350,  10.7566,   1
 10020,'10020       ',  24.0000,2,     0.000,     0.000,   2,   1,1.04350,  11.2064,   1
 10021,'10021       ',  13.8000,2,     0.000,     0.000,   2,   1,0.96300,   4.5411,   1
 10022,'10022       ',  24.0000,2,     0.000,     0.000,   2,   1,0.92900,   5.0640,   1
 10023,'10023       ',  13.8000,2,     0.000,     0.000,   2,   1,0.98290,  -9.5137,   1
 10024,'10024       ',  24.0000,2,     0.000,     0.000,   2,   1,1.05220,   4.1717,   1
 10025,'10025       ',  18.0000,2,     0.000,     0.000,   2,   1,1.00770,  -0.3195,   1
 10026,'10026       ',  24.0000,2,     0.000,     0.000,   2,   1,1.05220,   0.4669,   1
 10027,'10027       ',  26.0000,2,     0.000,     0.000,   2,   1,1.06500,  -0.6236,   1
 10028,'10028       ',  26.0000,2,     0.000,     0.000,   2,   1,1.06500,  -1.7520,   1
 10029,'10029       ',  20.0000,2,     0.000,     0.000,   3,   1,1.05510, -17.4840,   1
 10030,'10030       ',  26.0000,2,     0.000,     0.000,   3,   1,1.04350,  21.2723,   1
 10031,'10031       ',  20.0000,2,     0.000,     0.000,   3,   1,1.01500, -17.8803,   1
 10032,'10032       ',  24.0000,2,     0.000,     0.000,   3,   1,1.01000,  -7.6689,   1
 10033,'10033       ',  18.0000,2,     0.000,     0.000,   3,   1,1.00800, -18.5937,   1
 10034,'10034       ',  20.0000,2,     0.000,     0.000,   3,   1,1.00000, -19.3741,   1