0,   100.00, 30, 0, 1,  60.00     / PSS(R)E 30 RAW created by rawd30  MON, NOV 23 2020  14:23
 00/00/01                      100.0  0    0
 0
     1,'1           ', 115.0000,1,     0.000,     0.000,   1,   1,1.01566,   2.5935,   1
     2,'2           ', 115.0000,1,     0.000,     0.000,   1,   1,1.02885,   4.8872,   1
     3,'3           ', 230.0000,1,     0.000,     0.000,   1,   1,0.98245,   3.4684,   1
     4,'4           ', 345.0000,1,     0.000,     0.000,   1,   1,1.01185,   1.0146,   1
     5,'5           ', 115.0000,1,     0.000,     0.000,   1,   1,1.00346,   0.8911,   1
     6,'6           ', 115.0000,1,     0.000,     0.000,   1,   1,1.02181,   3.9040,   1
     7,'7           ', 230.0000,1,     0.000,     0.000,   1,   1,0.97939,   2.8209,   1
     8,'8           ', 115.0000,1,     0.000,     0.000,   1,   1,1.01529,  -2.3169,   1
     9,'9           ', 115.0000,1,     0.000,     0.000,   1,   1,0.99059,  -1.6199,   1
    10,'10          ', 230.0000,1,     0.000,     0.000,   1,   1,1.02049,  -3.6062,   1
    11,'11          ', 115.0000,1,     0.000,     0.000,   1,   1,1.00130,  -2.2018,   1
    12,'12          ', 230.0000,1,     0.000,     0.000,   1,   1,0.98695,   1.5087,   1
    13,'13          ', 115.0000,1,     0.000,     0.000,   1,   1,0.99323,  -6.2068,   1
    14,'14          ', 115.0000,1,     0.000,     0.000,   1,   1,0.97588, -11.6039,   1
    15,'15          ', 115.0000,1,     0.000,     0.000,   1,   1,1.00938, -16.4253,   1
    16,'16          ', 345.0000,1,     0.000,     0.000,   1,   1,1.00093,  -8.4077,   1
    17,'17          ', 115.0000,1,     0.000,     0.000,   1,   1,1.04211, -22.8872,   1
    19,'19          ', 230.0000,1,     0.000,     0.000,   1,   1,0.96802,  -4.0266,   1
    20,'20          ', 115.0000,1,     0.000,     0.000,   1,   1,1.00098,  -8.7379,   1
    21,'21          ', 230.0000,1,     0.000,     0.000,   1,   1,0.96552,  -3.3386,   1
    22,'22          ', 115.0000,1,     0.000,     0.000,   1,   1,0.98973,  -8.0246,   1
    23,'23          ', 115.0000,1,     0.000,     0.000,   1,   1,1.04723,  -0.0545,   1
    24,'24          ', 230.0000,1,     0.000,     0.000,   1,   1,0.99968,   2.6181,   1
    25,'25          ', 115.0000,1,     0.000,     0.000,   1,   1,1.01093,  -3.3296,   1
    26,'26          ', 115.0000,1,     0.000,     0.000,   1,   1,0.97832,  -7.5666,   1
    27,'27          ', 115.0000,1,     0.000,     0.000,   1,   1,0.95198, -11.8678,   1
    33,'33          ', 115.0000,1,     0.000,     0.000,   1,   1,0.98523, -20.1423,   1
    34,'34          ', 345.0000,1,     0.000,     0.000,   1,   1,1.00566, -15.0515,   1
    35,'35          ', 115.0000,1,     0.000,     0.000,   1,   1,0.96899, -40.4461,   1
    36,'36          ', 230.0000,1,     0.000,     0.000,   1,   1,0.97772, -36.0607,   1
    37,'37          ', 115.0000,1,     0.000,     0.000,   1,   1,0.98445, -18.6202,   1
    38,'38          ', 115.0000,1,     0.000,     0.000,   1,   1,0.97990, -20.8501,   1
    39,'39          ', 345.0000,1,     0.000,     0.000,   1,   1,1.02362, -12.1748,   1
    40,'40          ', 115.0000,1,     0.000,     0.000,   1,   1,0.98378, -21.1417,   1
    41,'41          ', 115.0000,1,     0.000,     0.000,   1,   1,0.99073, -17.7751,   1
    42,'42          ', 345.0000,1,     0.000,     0.000,   1,   1,1.01003, -14.4424,   1
    43,'43          ', 115.0000,1,     0.000,     0.000,   1,   1,0.95480, -27.4800,   1
    44,'44          ', 115.0000,1,     0.000,     0.000,   1,   1,0.96731, -28.8849,   1
    45,'45          ', 230.0000,1,     0.000,     0.000,   1,   1,0.98128, -25.2262,   1
    46,'46          ', 345.0000,1,     0.000,     0.000,   1,   1,0.99368, -20.6746,   1
    47,'47          ', 115.0000,1,     0.000,     0.000,   1,   1,0.93264, -36.8063,   1
    48,'48          ', 115.0000,1,     0.000,     0.000,   1,   1,0.97052, -26.3361,   1
    49,'49          ', 115.0000,1,     0.000,     0.000,   1,   1,1.03800,  -4.3292,   1
    51,'51          ', 115.0000,1,     0.000,     0.000,   1,   1,0.99014, -13.4748,   1
    52,'52          ', 115.0000,1,     0.000,     0.000,   1,   1,0.95409, -19.9742,   1
    53,'53          ', 115.0000,1,     0.000,     0.000,   1,   1,0.94865, -28.7405,   1
    54,'54          ', 115.0000,1,     0.000,     0.000,   1,   1,0.96253, -26.9979,   1
    55,'55          ', 115.0000,1,     0.000,     0.000,   1,   1,0.98249, -21.4300,   1
    57,'57          ', 115.0000,1,     0.000,     0.000,   1,   1,1.02000, -17.6893,   1
    58,'58          ', 115.0000,1,     0.000,     0.000,   1,   1,0.96934, -15.9011,   1
    59,'59          ', 115.0000,1,     0.000,     0.000,   1,   1,0.95445, -15.2133,   1
    60,'60          ', 230.0000,1,     0.000,     0.000,   1,   1,0.99329, -19.4349,   1
    61,'61          ', 115.0000,1,     0.000,     0.000,   1,   1,0.97189, -12.8585,   1
    62,'62          ', 230.0000,1,     0.000,     0.000,   1,   1,1.00243, -10.2189,   1
    63,'63          ', 115.0000,1,     0.000,     0.000,   1,   1,0.95829, -32.5751,   1
    64,'64          ', 230.0000,1,     0.000,     0.000,   1,   1,0.93509, -26.4483,   1
    69,'69          ', 115.0000,1,     0.000,     0.000,   1,   1,0.93445, -40.3339,   1
    70,'70          ', 115.0000,1,     0.000,     0.000,   1,   1,0.91169, -53.2713,   1
    71,'71          ', 115.0000,1,     0.000,     0.000,   1,   1,0.95505, -45.9696,   1
    72,'72          ', 115.0000,1,     0.000,     0.000,   1,   1,0.95457, -42.7464,   1
    73,'73          ', 115.0000,1,     0.000,     0.000,   1,   1,0.94870, -40.3242,   1
    74,'74          ', 230.0000,1,     0.000,     0.000,   1,   1,0.95971, -35.1784,   1
    76,'76          ', 115.0000,1,     0.000,     0.000,   1,   1,0.96318, -41.8296,   1
    77,'77          ', 115.0000,1,     0.000,     0.000,   1,   1,0.97452, -39.3169,   1
    78,'78          ', 115.0000,1,     0.000,     0.000,   1,   1,0.98038, -38.1144,   1
    79,'79          ', 115.0000,1,     0.000,     0.000,   1,   1,0.96437, -39.3115,   1
    80,'80          ', 115.0000,1,     0.000,     0.000,   1,   1,0.97358, -39.1149,   1
    81,'81          ', 345.0000,1,     0.000,     0.000,   1,   1,1.00360, -30.5891,   1
    84,'84          ', 115.0000,1,     0.000,     0.000,   1,   1,1.02498, -28.9795,   1
    85,'85          ', 230.0000,1,     0.000,     0.000,   1,   1,0.97667, -29.3938,   1
    86,'86          ', 230.0000,1,     0.000,     0.000,   1,   1,0.97475, -24.5839,   1
    87,'87          ', 230.0000,1,     0.000,     0.000,   1,   1,0.97108, -15.8759,   1
    88,'88          ', 230.0000,1,     0.000,     0.000,   1,   1,0.98537, -33.6139,   1
    89,'89          ', 115.0000,1,     0.000,     0.000,   1,   1,1.01334, -19.6870,   1
    90,'90          ', 115.0000,1,     0.000,     0.000,   1,   1,1.00180, -19.4185,   1
    91,'91          ', 115.0000,1,     0.000,     0.000,   1,   1,1.05199, -17.8659,   1
    92,'92          ', 115.0000,1,     0.000,     0.000,   1,   1,1.05199, -13.3228,   1
    94,'94          ', 115.0000,1,     0.000,     0.000,   1,   1,0.97605, -18.0763,   1
    97,'97          ', 115.0000,1,     0.000,     0.000,   1,   1,1.01082, -23.0576,   1
    98,'98          ', 115.0000,1,     0.000,     0.000,   1,   1,1.00000, -25.1965,   1
    99,'99          ', 115.0000,1,     0.000,     0.000,   1,   1,0.98698, -32.8710,   1
   100,'100         ', 115.0000,1,     0.000,     0.000,   1,   1,0.99960, -24.8269,   1
   102,'102         ', 115.0000,1,     0.000,     0.000,   1,   1,0.99153, -25.8869,   1
   103,'103         ', 115.0000,1,     0.000,     0.000,   1,   1,1.01913, -21.2219,   1
   104,'104         ', 115.0000,1,     0.000,     0.000,   1,   1,0.98793, -28.7823,   1
   105,'105         ', 115.0000,1,     0.000,     0.000,   1,   1,1.00819, -22.3566,   1
   107,'107         ', 115.0000,1,     0.000,     0.000,   1,   1,0.99016, -26.5404,   1
   108,'108         ', 115.0000,1,     0.000,     0.000,   1,   1,0.98999, -32.9189,   1
   109,'109         ', 115.0000,1,     0.000,     0.000,   1,   1,0.94627, -40.7285,   1
   110,'110         ', 115.0000,1,     0.000,     0.000,   1,   1,0.94712, -38.7862,   1
   112,'112         ', 115.0000,1,     0.000,     0.000,   1,   1,0.94352, -44.3541,   1
   113,'113         ', 115.0000,1,     0.000,     0.000,   1,   1,0.92640, -39.8920,   1
   114,'114         ', 115.0000,1,     0.000,     0.000,   1,   1,0.94664, -44.2285,   1
   115,'115         ', 115.0000,1,     0.000,     0.000,   2,   2,0.82003,   3.2487,   1
   116,'116         ', 115.0000,1,     0.000,     0.000,   2,   2,1.02807,  13.3938,   1
   117,'117         ', 115.0000,1,     0.000,   422.500,   2,   2,0.80014,  24.0271,   1
   118,'118         ', 115.0000,1,     0.000,     0.000,   2,   2,0.79484,  25.7762,   1
   119,'119         ', 115.0000,1,     0.000,     0.000,   2,   2,1.04329,  46.2288,   1
   120,'120         ', 115.0000,1,     0.000,    71.500,   2,   2,0.99337,  39.2661,   1
   121,'121         ', 115.0000,1,     0.000,     0.000,   2,   2,0.74363,   7.8567,   1
   122,'122         ', 115.0000,1,     0.000,     0.000,   2,   2,0.81029,  -0.0563,   1
   123,'123         ', 115.0000,1,     0.000,     0.000,   2,   2,0.93800,  -5.7520,   1
   124,'124         ', 115.0000,1,     0.000,     0.000,   2,   2,1.02326,   8.9493,   1
   125,'125         ', 115.0000,1,     0.000,     0.000,   2,   2,1.01023, -18.9492,   1
   126,'126         ', 115.0000,1,     0.000,     0.000,   2,   2,0.93683, -12.8016,   1
   127,'127         ', 230.0000,1,     0.000,     0.000,   2,   2,0.95867, -18.7045,   1
   128,'128         ', 230.0000,1,     0.000,     0.000,   2,   2,0.97379, -15.1650,   1
   129,'129         ', 230.0000,1,     0.000,     0.000,   2,   2,0.97335, -14.1120,   1
   130,'130         ', 230.0000,1,     0.000,     0.000,   2,   2,0.99526,   1.5202,   1
   131,'131         ', 230.0000,1,     0.000,     0.000,   2,   2,0.96933,   2.5213,   1
   132,'132         ', 230.0000,1,     0.000,     0.000,   2,   2,0.98453,  -1.0993,   1
   133,'133         ', 230.0000,1,     0.000,     0.000,   2,   2,0.98186, -18.1868,   1
   134,'134         ', 230.0000,1,     0.000,     0.000,   2,   2,0.99429, -17.3596,   1
   135,'135         ', 230.0000,1,     0.000,     0.000,   2,   2,0.99122, -17.3608,   1
   136,'136         ', 230.0000,1,     0.000,     0.000,   2,   2,1.03040,  -9.7886,   1
   137,'137         ', 230.0000,1,     0.000,     0.000,   2,   2,1.03399, -17.9410,   1
   138,'138         ', 230.0000,1,     0.000,     0.000,   2,   2,1.05494, -30.3135,   1
   139,'139         ', 115.0000,1,     0.000,     0.000,   2,   2,0.99641, -20.2206,   1
   140,'140         ', 230.0000,1,     0.000,     0.000,   2,   2,1.02323, -20.1425,   1
   141,'141         ', 230.0000,1,     0.000,     0.000,   2,   2,1.05099, -15.1792,   1
   142,'142         ', 230.0000,1,     0.000,     0.000,   2,   2,0.97923, -17.3704,   1
   143,'143         ', 230.0000,1,     0.000,     0.000,   2,   2,1.04347,  -7.2494,   1
   144,'144         ', 230.0000,1,     0.000,     0.000,   2,   2,1.00336,  -9.9902,   1
   145,'145         ', 230.0000,1,     0.000,     0.000,   2,   2,0.98137, -13.8245,   1
   146,'146         ', 230.0000,1,     0.000,     0.000,   2,   2,1.05279,  -8.6328,   1
   147,'147         ', 230.0000,1,     0.000,     0.000,   2,   2,1.05280,  -3.4848,   1
   148,'148         ', 230.0000,1,     0.000,     0.000,   2,   2,1.04226, -12.4486,   1
   149,'149         ', 230.0000,1,     0.000,     0.000,   2,   2,1.07349,  -5.9842,   1
   150,'150         ', 230.0000,1,     0.000,     0.000,   2,   2,0.96905,   2.9013,   1
   151,'151         ', 230.0000,1,     0.000,     0.000,   2,   2,0.98667,  -0.3420,   1
   152,'152         ', 230.0000,1,     0.000,     0.000,   2,   2,1.05350,  -0.0956,   1
   153,'153         ', 230.0000,1,     0.000,     0.000,   2,   2,1.04350,   0.4066,   1
   154,'154         ', 115.0000,1,     0.000,    44.850,   2,   2,0.95813, -16.0704,   1
   155,'155         ', 230.0000,1,     0.000,     0.000,   2,   2,0.98752,  -5.3110,   1
   156,'156         ', 115.0000,1,     0.000,     0.000,   2,   2,0.96299,  -7.5085,   1
   157,'157         ', 230.0000,1,     0.000,     0.000,   2,   2,0.82355,   2.8968,   1
   158,'158         ', 230.0000,1,     0.000,     0.000,   2,   2,0.87570,   2.6379,   1
   159,'159         ', 230.0000,1,     0.000,     0.000,   2,   2,0.80933,   9.3160,   1
   160,'160         ', 230.0000,1,     0.000,     0.000,   2,   2,0.94655,   6.0596,   1
   161,'161         ', 230.0000,1,     0.000,     0.000,   2,   2,1.02396,  -1.9448,   1
   162,'162         ', 230.0000,1,     0.000,     0.000,   2,   2,0.93259,  11.6159,   1
   163,'163         ', 230.0000,1,     0.000,     0.000,   2,   2,1.00343, -11.5814,   1
   164,'164         ', 230.0000,1,     0.000,  -275.600,   2,   2,0.93154,  -1.4017,   1
   165,'165         ', 230.0000,1,     0.000,     0.000,   2,   2,0.95855,  22.9093,   1
   166,'166         ', 230.0000,1,     0.000,  -133.900,   2,   2,0.96998,  28.3947,   1
   167,'167         ', 230.0000,1,     0.000,     0.000,   2,   2,0.92585, -17.4697,   1
   168,'168         ', 230.0000,1,     0.000,     0.000,   2,   2,0.97388, -15.2019,   1
   169,'169         ', 230.0000,1,     0.000,     0.000,   2,   2,0.95254, -17.4718,   1
   170,'170         ', 115.0000,1,     0.000,     0.000,   2,   2,0.92897,  -5.3793,   1
   171,'171         ', 115.0000,1,     0.000,     0.000,   2,   2,0.98285, -24.1600,   1
   172,'172         ', 115.0000,1,     0.000,     0.000,   2,   2,0.99560, -23.5135,   1
   173,'173         ', 115.0000,1,     0.000,    68.900,   2,   2,0.91757, -32.4794,   1
   174,'174         ', 115.0000,1,     0.000,     0.000,   2,   2,1.04861, -18.7693,   1
   175,'175         ', 115.0000,1,     0.000,     0.000,   2,   2,0.91885, -23.8450,   1
   176,'176         ', 115.0000,1,     0.000,     0.000,   2,   2,1.05219,  -8.1558,   1
   177,'177         ', 115.0000,1,     0.000,     0.000,   2,   2,1.00769, -13.5918,   1
   178,'178         ', 115.0000,1,     0.000,     0.000,   2,   2,0.88659, -22.8807,   1
   179,'179         ', 115.0000,1,     0.000,    58.500,   2,   2,0.91011, -26.6156,   1
   180,'180         ', 115.0000,1,     0.000,     0.000,   2,   2,0.94053, -17.9091,   1
   181,'181         ', 230.0000,1,     0.000,     0.000,   2,   2,1.04004, -18.6240,   1
   182,'182         ', 230.0000,1,     0.000,     0.000,   2,   2,1.02431, -21.1148,   1
   183,'183         ', 115.0000,1,     0.000,     0.000,   2,   2,0.96853,  -4.0249,   1
   184,'184         ', 230.0000,1,     0.000,     0.000,   2,   2,1.02579, -15.7650,   1
   185,'185         ', 230.0000,1,     0.000,     0.000,   2,   2,1.05219, -12.4804,   1
   186,'186         ', 230.0000,1,     0.000,     0.000,   2,   2,1.06496, -13.6585,   1
   187,'187         ', 230.0000,1,     0.000,     0.000,   2,   2,1.06495, -15.0051,   1
   188,'188         ', 230.0000,1,     0.000,     0.000,   2,   2,1.04323, -17.7488,   1
   189,'189         ',  66.0000,1,     0.000,     0.000,   3,   3,0.97697, -40.2925,   1
   190,'190         ', 345.0000,1,     0.000,  -195.000,   3,   3,1.05506, -32.7476,   1
   191,'191         ', 230.0000,1,     0.000,     0.000,   3,   3,1.04337,  17.3601,   1
   192,'192         ', 230.0000,1,     0.000,     0.000,   3,   3,0.83080, -18.1572,   1
   193,'192         ',  66.0000,1,     0.000,     0.000,   3,   3,0.96376, -41.1045,   1
   194,'194         ', 345.0000,1,     0.000,     0.000,   3,   3,1.02490, -30.8617,   1
   195,'195         ', 345.0000,1,     0.000,     0.000,   3,   3,1.01688, -33.0498,   1
   196,'196         ', 115.0000,1,     0.000,     0.000,   3,   3,0.94879, -39.0316,   1
   197,'197         ', 115.0000,1,     0.000,     0.000,   3,   3,0.97627, -37.0456,   1
   198,'198         ', 115.0000,1,     0.000,     0.000,   3,   3,1.01498, -33.0271,   1
   199,'199         ', 115.0000,1,     0.000,     0.000,   3,   3,0.92803, -40.2053,   1
   200,'200         ', 115.0000,1,     0.000,     0.000,   3,   3,0.93153, -40.0397,   1
   201,'201         ',  66.0000,1,     0.000,     0.000,   1,   1,0.93250, -43.2370,   1
   202,'202         ',  66.0000,1,     0.000,     0.000,   3,   3,0.97024, -39.2317,   1
   203,'203         ', 115.0000,1,     0.000,     0.000,   3,   3,0.99457, -35.3034,   1
   204,'204         ',  66.0000,1,     0.000,     0.000,   3,   3,0.93080, -41.4590,   1
   205,'205         ',  66.0000,1,     0.000,     0.000,   3,   3,0.95139, -41.4550,   1
   206,'206         ',  66.0000,1,     0.000,     0.000,   3,   3,0.97136, -42.7619,   1
   207,'207         ',  66.0000,1,     0.000,     0.000,   1,   1,0.98936, -42.7012,   1
   208,'208         ',  66.0000,1,     0.000,     0.000,   3,   3,0.96890, -41.1030,   1
   209,'209         ',  66.0000,1,     0.000,     0.000,   3,   3,0.98132, -39.9744,   1
   210,'210         ', 115.0000,1,     0.000,     0.000,   3,   3,0.96282, -37.7458,   1
   211,'211         ', 115.0000,1,     0.000,     0.000,   3,   3,0.98640, -36.5442,   1
   212,'212         ', 138.0000,1,     0.000,     0.000,   3,   3,0.99764, -35.3836,   1
   213,'213         ',  16.5000,1,     0.000,     0.000,   3,   3,1.00999, -21.0262,   1
   214,'214         ', 138.0000,1,     0.000,     0.000,   3,   3,0.98664, -28.7450,   1
   215,'215         ', 138.0000,1,     0.000,     0.000,   3,   3,0.97323, -32.3048,   1
   216,'216         ', 138.0000,1,     0.000,     0.000,   3,   3,0.95422, -35.3221,   1
   217,'217         ', 138.0000,1,     0.000,     0.000,   3,   3,1.00921, -34.7741,   1
   218,'218         ', 138.0000,1,     0.000,     0.000,   3,   3,0.99512, -35.3292,   1
   219,'219         ', 345.0000,1,     0.000,     0.000,   3,   3,1.04520, -33.3737,   1
   220,'220         ', 138.0000,1,     0.000,     0.000,   3,   3,1.00798, -34.1563,   1
   221,'221         ', 138.0000,1,     0.000,     0.000,   3,   3,0.99996, -35.2349,   1
   222,'222         ',  20.0000,1,     0.000,     0.000,   3,   3,1.04998, -35.9618,   1
   223,'223         ', 138.0000,1,     0.000,     0.000,   3,   3,0.99353, -35.4906,   1
   224,'224         ', 230.0000,1,     0.000,     0.000,   3,   3,0.97522, -33.9752,   1
   225,'225         ', 230.0000,1,     0.000,     0.000,   3,   3,0.84441, -18.4165,   1
   226,'226         ', 230.0000,1,     0.000,     0.000,   3,   3,0.99787, -34.0235,   1
   227,'227         ',  27.0000,1,     0.000,     0.000,   3,   3,0.99996, -41.2867,   1
   228,'228         ', 138.0000,1,     0.000,     0.000,   3,   3,1.02635, -33.0664,   1
   229,'229         ', 138.0000,1,     0.000,     0.000,   3,   3,1.03694, -31.7519,   1
   230,'230         ',  20.0000,1,     0.000,     0.000,   3,   3,1.03999, -23.6430,   1
   231,'231         ', 345.0000,1,     0.000,  -390.000,   3,   3,1.04574, -33.4749,   1
   232,'232         ', 138.0000,1,     0.000,     0.000,   3,   3,1.03128, -36.0777,   1
   233,'233         ',  66.0000,1,     0.000,     0.000,   3,   3,0.99998, -39.5894,   1
   234,'234         ', 138.0000,1,     0.000,     0.000,   3,   3,1.02719, -32.9992,   1
   235,'235         ', 138.0000,1,     0.000,     0.000,   3,   3,1.00880, -33.2032,   1
   236,'236         ',  20.0000,1,     0.000,     0.000,   3,   3,1.01646, -25.7078,   1
   237,'237         ', 345.0000,1,     0.000,     0.000,   3,   3,1.04762, -33.3058,   1
   238,'238         ', 138.0000,1,     0.000,  -195.000,   3,   3,1.00997, -33.0997,   1
   239,'239         ', 138.0000,1,     0.000,     0.000,   3,   3,0.99999, -26.4373,   1
   240,'240         ', 230.0000,1,     0.000,  -182.000,   3,   3,1.01478, -32.1145,   1
   241,'241         ',  20.0000,1,     0.000,     0.000,   3,   3,1.05000, -27.2630,   1
   242,'242         ', 138.0000,1,     0.000,     0.000,   3,   3,0.99299, -28.7798,   1
   243,'243         ',  66.0000,1,     0.000,     0.000,   3,   3,1.00999, -31.0340,   1
   244,'244         ',  66.0000,1,     0.000,     0.000,   3,   3,0.98674, -32.2739,   1
   245,'245         ',  66.0000,1,     0.000,     0.000,   3,   3,0.96076, -33.2024,   1
   246,'246         ',  66.0000,1,     0.000,     0.000,   3,   3,0.95179, -34.3211,   1
   247,'247         ',  66.0000,1,     0.000,     0.000,   3,   3,0.95691, -34.2430,   1
   248,'248         ',  66.0000,1,     0.000,    59.280,   3,   3,0.96113, -38.9868,   1
   249,'249         ',  66.0000,1,     0.000,     0.000,   3,   3,0.95941, -39.5557,   1
   250,'250         ',  66.0000,1,     0.000,     0.000,   3,   3,1.01699, -37.0939,   1
   281,'281         ', 230.0000,1,     0.000,     0.000,   3,   3,1.01654, -32.0182,   1
   319,'319         ', 230.0000,1,     0.000,     0.000,   1,   1,1.00943,  -3.3562,   1
   320,'320         ', 115.0000,1,     0.000,     0.000,   1,   1,0.99913,  -8.2348,   1
   322,'322         ', 115.0000,1,     0.000,     0.000,   1,   1,0.99378, -29.1573,   1
   323,'323         ', 230.0000,1,     0.000,     0.000,   1,   1,0.96080, -23.9042,   1
   324,'324         ', 115.0000,1,     0.000,     0.000,   1,   1,0.96888, -37.0349,   1
   526,'526         ', 115.0000,1,     0.000,     0.000,   1,   1,0.91757, -55.1254,   1
   528,'528         ', 115.0000,1,     0.000,     0.000,   1,   1,0.93896, -56.6636,   1
   531,'531         ', 115.0000,1,     0.000,     0.000,   1,   1,0.94227, -44.9315,   1
   552,'552         ', 115.0000,1,     0.000,     0.000,   1,   1,0.99553, -37.2073,   1
   562,'562         ', 230.0000,1,     0.000,     0.000,   1,   1,0.91352, -43.7194,   1
   609,'609         ', 115.0000,1,     0.000,     0.000,   1,   1,0.93898, -44.4579,   1
   664,'664         ', 345.0000,1,     0.000,     0.000,   3,   3,0.99790, -27.8107,   1
  1190,'1190        ',  86.0000,1,     0.000,     0.000,   1,   1,1.03319,  44.6545,   1
  1200,'1200        ',  86.0000,1,     0.000,     0.000,   1,   1,0.98250,  41.0217,   1
  1201,'1201        ', 115.0000,1,     0.000,     0.000,   2,   2,1.35275,  51.1242,   1
  2040,'2040        ', 115.0000,1,     0.000,     0.000,   3,   3,0.94279, -28.8128,   1
  7001,'7001        ',  13.8000,1,     0.000,     0.000,   1,   1,1.05068,   9.0220,   1
  7002,'7002        ',  13.8000,1,     0.000,     0.000,   1,   1,1.05069,  11.1381,   1
  7003,'7003        ',  13.8000,1,     0.000,     0.000,   1,   1,1.03224,  12.9506,   1
  7011,'7011        ',  13.8000,1,     0.000,     0.000,   1,   1,1.01449,   1.1250,   1
  7012,'7012        ',  13.8000,1,     0.000,     0.000,   1,   1,1.05068,   9.9400,   1
  7017,'7017        ',  13.8000,1,     0.000,     0.000,   1,   1,1.05065, -19.3603,   1
  7023,'7023        ',  13.8000,1,     0.000,     0.000,   1,   1,1.05070,   2.8492,   1
  7024,'7024        ',  13.8000,1,     0.000,     0.000,   1,   1,1.02899,  11.2970,   1
  7039,'7039        ',  20.0000,1,     0.000,     0.000,   1,   1,1.04997,  -1.4681,   1
  7044,'7044        ',  13.8000,1,     0.000,     0.000,   1,   1,1.01449, -24.0324,   1
  7049,'7049        ',  13.8000,1,     0.000,     0.000,   1,   1,1.05069,   0.5014,   1
  7055,'7055        ',  13.8000,1,     0.000,     0.000,   1,   1,0.99670, -15.0462,   1
  7057,'7057        ',  13.8000,1,     0.000,     0.000,   1,   1,1.02119, -11.6385,   1
  7061,'7061        ',  13.8000,1,     0.000,     0.000,   1,   1,1.01448,  -5.5919,   1
  7062,'7062        ',  13.8000,1,     0.000,     0.000,   1,   1,1.00168,  -1.0504,   1
  7071,'7071        ',  13.8000,1,     0.000,     0.000,   1,   1,0.98929, -39.8798,   1
  7130,'7130        ',  13.8000,1,     0.000,     0.000,   2,   2,1.05065,  19.7237,   1
  7139,'7139        ',  13.8000,1,     0.000,     0.000,   2,   2,1.05066, -11.8092,   1
  7166,'7166        ',  13.8000,1,     0.000,     0.000,   2,   2,1.01447,  34.9045,   1
  9001,'9001        ', 115.0000,1,     0.000,     0.000,   1,   9,0.98083, -18.6489,   1
  9002,'9002        ',   6.6000,1,     0.000,     0.000,   1,   9,0.99450, -29.2339,   1
  9003,'9003        ',   6.6000,1,     0.182,     3.120,   1,   9,0.89702, -31.0799,   1
  9004,'9004        ',   6.6000,1,     0.000,     0.000,   1,   9,0.88761, -31.2864,   1
  9005,'9005        ', 115.0000,1,     0.000,     0.000,   1,   9,0.98147, -18.7597,   1
  9006,'9006        ',   6.6000,1,     0.000,     0.000,   1,   9,0.92930, -27.6591,   1
  9007,'9007        ',   6.6000,1,     0.000,     0.000,   1,   9,0.91050, -29.5555,   1
  9012,'9012        ',   6.6000,1,     0.000,     0.000,   1,   9,0.99167, -27.0059,   1
  9021,'9021        ',   6.6000,1,     0.000,     0.000,   1,   9,0.98693, -29.5201,   1
  9022,'9022        ',   0.6000,1,     0.104,     0.000,   1,   9,0.95523, -32.9018,   1
  9023,'9023        ',   6.6000,1,     0.000,     0.000,   1,   9,0.96850, -29.9201,   1
  9024,'9024        ',   0.6000,1,     0.091,     0.000,   1,   9,0.96265, -32.5951,   1
  9025,'9025        ',   0.6000,1,     0.026,     0.000,   1,   9,0.95537, -31.3210,   1
  9026,'9026        ',   0.6000,1,     0.026,     0.000,   1,   9,0.95650, -31.2028,   1
  9031,'9031        ',   0.6000,1,     0.130,     0.000,   1,   9,0.81700, -39.6881,   1
  9032,'9032        ',   0.6000,1,     0.091,     0.000,   1,   9,0.83745, -37.6981,   1
  9033,'9033        ',   0.6000,1,     0.130,     0.000,   1,   9,0.81188, -40.2285,   1
  9034,'9034        ',   0.6000,1,     0.104,     2.236,   1,   9,0.91101, -33.2353,   1
  9035,'9035        ',   0.6000,1,     0.117,     0.000,   1,   9,0.84767, -36.6197,   1
  9036,'9036        ',   2.3000,1,     0.000,     0.000,   1,   9,0.86166, -35.8214,   1
  9037,'9037        ',   0.6000,1,     0.130,     0.000,   1,   9,0.85795, -35.6582,   1
  9038,'9038        ',   0.6000,1,     0.182,     0.000,   1,   9,0.82928, -38.6591,   1
  9041,'9041        ',   0.6000,1,     0.065,     0.000,   1,   9,0.86824, -33.6501,   1
  9042,'9042        ',   0.6000,1,     0.052,     0.000,   1,   9,0.84816, -35.5226,   1
  9043,'9043        ',   2.3000,1,     0.000,     0.000,   1,   9,0.86978, -33.8319,   1
  9044,'9044        ',   6.6000,1,     0.000,     0.000,   1,   9,0.89076, -31.2263,   1
  9051,'9051        ',  13.8000,1,     0.000,     0.000,   1,   9,1.00000, -29.8880,   1
  9052,'9052        ',  13.8000,1,     0.000,     0.000,   1,   9,0.90223, -27.3889,   1
  9053,'9053        ',  13.8000,1,     0.000,     0.000,   1,   9,1.00000, -27.4003,   1
  9054,'9054        ',  13.8000,1,     0.000,     0.000,   1,   9,1.00000, -12.6834,   1
  9055,'9055        ',  13.8000,1,     0.000,     0.000,   1,   9,1.00000, -13.6456,   1
  9071,'9071        ',   0.6000,1,     0.065,     0.000,   1,   9,0.88739, -32.3116,   1
  9072,'9072        ',   0.6000,1,     0.065,     0.000,   1,   9,0.89480, -31.4508,   1
  9121,'9121        ',   6.6000,1,     0.000,     0.000,   1,   9,0.96173, -29.7161,   1
  9533,'9533        ',   2.3000,1,     0.130,     0.000,   1,   9,1.03960, -28.0688,   1
 10000,'10000       ',  13.8000,2,     0.000,     0.000,   1,   1,1.01530,  -2.3169,   1
 10001,'10001       ',  13.8000,2,     0.000,     0.000,   1,   1,1.02050,  -3.6062,   1
 10002,'10002       ',  13.8000,2,     0.000,     0.000,   1,   1,1.00100,  -8.7380,   1
 10003,'10003       ',  13.8000,2,     0.000,     0.000,   1,   1,0.95830, -32.5751,   1
 10004,'10004       ',  13.8000,2,     0.000,     0.000,   1,   1,0.96320, -41.8296,   1
 10005,'10005       ',  20.0000,2,     0.000,     0.000,   1,   1,1.02500, -28.9768,   1
 10006,'10006       ',  18.0000,2,     0.000,     0.000,   1,   1,1.05200, -17.8648,   1
 10007,'10007       ',  24.0000,2,     0.000,     0.000,   1,   1,1.05200, -13.3209,   1
 10008,'10008       ',  15.5000,2,     0.000,     0.000,   1,   1,1.00000, -25.1960,   1
 10009,'10009       ',  18.0000,2,     0.000,     0.000,   1,   1,0.99000, -32.9180,   1
 10010,'10010       ',  26.0000,2,     0.000,     0.000,   2,   1,1.04350,  46.2421,   1
 10011,'10011       ',  24.0000,2,     0.000,     0.000,   2,   1,1.02330,   8.9510,   1
 10012,'10012       ',  13.8000,2,     0.000,     0.000,   2,   1,1.01030, -18.9492,   1
 10013,'10013       ',  26.0000,2,     0.000,     0.000,   2,   1,1.05500, -30.3197,   1
 10014,'10014       ',  24.0000,2,     0.000,     0.000,   2,   1,1.05100, -15.1773,   1
 10015,'10015       ',  26.0000,2,     0.000,     0.000,   2,   1,1.04350,  -7.2446,   1
 10016,'10016       ',  15.5000,2,     0.000,     0.000,   2,   1,1.05280,  -8.6323,   1
 10017,'10017       ',  24.0000,2,     0.000,     0.000,   2,   1,1.05280,  -3.4833,   1
 10018,'10018       ',  18.0000,2,     0.000,     0.000,   2,   1,1.07350,  -5.9835,   1
 10019,'10019       ',  20.0000,2,     0.000,     0.000,   2,   1,1.05350,  -0.0931,   1
 10020,'10020       ',  24.0000,2,     0.000,     0.000,   2,   1,1.04350,   0.4081,   1
 10021,'10021       ',  13.8000,2,     0.000,     0.000,   2,   1,0.96300,  -7.5085,   1
 10022,'10022       ',  24.0000,2,     0.000,     0.000,   2,   1,0.92900,  -5.3775,   1
 10023,'10023       ',  13.8000,2,     0.000,     0.000,   2,   1,0.98290, -24.1600,   1
 10024,'10024       ',  24.0000,2,     0.000,     0.000,   2,   1,1.05220,  -8.1542,   1
 10025,'10025       ',  18.0000,2,     0.000,     0.000,   2,   1,1.00770, -13.5912,   1
 10026,'10026       ',  24.0000,2,     0.000,     0.000,   2,   1,1.05220, -12.4790,   1
 10027,'10027       ',  26.0000,2,     0.000,     0.000,   2,   1,1.06500, -13.6505,   1
 10028,'10028       ',  26.0000,2,     0.000,     0.000,   2,   1,1.06500, -14.9971,   1
 10029,'10029       ',  20.0000,2,     0.000,     0.000,   3,   1,1.05510, -32.7444,   1
 10030,'10030       ',  26.0000,2,     0.000,     0.000,   3,   1,1.04350,  17.3737,   1
 10031,'10031       ',  20.0000,2,     0.000,     0.000,   3,   1,1.01500, -33.0240,   1
 10032,'10032       ',  24.0000,2,     0.000,     0.000,   3,   1,1.01000, -21.0242,   1
 10033,'10033       ',  18.0000,2,     0.000,     0.000,   3,   1,1.00800, -34.1556,   1
 10034,'10034       ',  20.0000,2,     0.000,     0.000,   3,   1,1.00000, -35.2315,   1