0,   100.00, 30, 0, 1,  60.00     / PSS(R)E 30 RAW created by rawd30  MON, NOV 23 2020  14:25
 00/00/01                      100.0  0    0
 0
     1,'1           ', 115.0000,1,     0.000,     0.000,   1,   1,1.03157,  -1.5082,   1
     2,'2           ', 115.0000,1,     0.000,     0.000,   1,   1,1.03560,   0.1752,   1
     3,'3           ', 230.0000,1,     0.000,     0.000,   1,   1,0.99770,  -1.8312,   1
     4,'4           ', 345.0000,1,     0.000,     0.000,   1,   1,1.03242,  -3.4238,   1
     5,'5           ', 115.0000,1,     0.000,     0.000,   1,   1,1.02328,  -2.6277,   1
     6,'6           ', 115.0000,1,     0.000,     0.000,   1,   1,1.03178,  -0.6520,   1
     7,'7           ', 230.0000,1,     0.000,     0.000,   1,   1,0.99374,  -2.2111,   1
     8,'8           ', 115.0000,1,     0.000,     0.000,   1,   1,1.01530,  -4.1116,   1
     9,'9           ', 115.0000,1,     0.000,     0.000,   1,   1,1.00802,  -3.8636,   1
    10,'10          ', 230.0000,1,     0.000,     0.000,   1,   1,1.02050,  -5.3517,   1
    11,'11          ', 115.0000,1,     0.000,     0.000,   1,   1,1.00754,  -3.9281,   1
    12,'12          ', 230.0000,1,     0.000,     0.000,   1,   1,0.99890,  -2.4118,   1
    13,'13          ', 115.0000,1,     0.000,     0.000,   1,   1,0.99976,  -6.4315,   1
    14,'14          ', 115.0000,1,     0.000,     0.000,   1,   1,1.00700, -10.0879,   1
    15,'15          ', 115.0000,1,     0.000,     0.000,   1,   1,1.03885, -13.2188,   1
    16,'16          ', 345.0000,1,     0.000,     0.000,   1,   1,1.03595,  -9.4900,   1
    17,'17          ', 115.0000,1,     0.000,     0.000,   1,   1,1.07649, -16.1232,   1
    19,'19          ', 230.0000,1,     0.000,     0.000,   1,   1,0.98645,  -5.3897,   1
    20,'20          ', 115.0000,1,     0.000,     0.000,   1,   1,1.00100,  -8.0268,   1
    21,'21          ', 230.0000,1,     0.000,     0.000,   1,   1,0.97823,  -4.8022,   1
    22,'22          ', 115.0000,1,     0.000,     0.000,   1,   1,0.99947,  -7.3757,   1
    23,'23          ', 115.0000,1,     0.000,     0.000,   1,   1,1.05167,  -1.6872,   1
    24,'24          ', 230.0000,1,     0.000,     0.000,   1,   1,1.00734,  -0.1065,   1
    25,'25          ', 115.0000,1,     0.000,     0.000,   1,   1,1.02950,  -3.8582,   1
    26,'26          ', 115.0000,1,     0.000,     0.000,   1,   1,1.00824,  -6.6595,   1
    27,'27          ', 115.0000,1,     0.000,     0.000,   1,   1,0.98658,  -9.5578,   1
    33,'33          ', 115.0000,1,     0.000,     0.000,   1,   1,1.02272, -16.5295,   1
    34,'34          ', 345.0000,1,     0.000,     0.000,   1,   1,1.04214, -14.3689,   1
    35,'35          ', 115.0000,1,     0.000,     0.000,   1,   1,0.97574, -34.5192,   1
    36,'36          ', 230.0000,1,     0.000,     0.000,   1,   1,1.00073, -32.2633,   1
    37,'37          ', 115.0000,1,     0.000,     0.000,   1,   1,1.01879, -14.8742,   1
    38,'38          ', 115.0000,1,     0.000,     0.000,   1,   1,1.01915, -16.9106,   1
    39,'39          ', 345.0000,1,     0.000,     0.000,   1,   1,1.05386, -12.5654,   1
    40,'40          ', 115.0000,1,     0.000,     0.000,   1,   1,1.02001, -16.8436,   1
    41,'41          ', 115.0000,1,     0.000,     0.000,   1,   1,1.02525, -15.0033,   1
    42,'42          ', 345.0000,1,     0.000,     0.000,   1,   1,1.04515, -14.1168,   1
    43,'43          ', 115.0000,1,     0.000,     0.000,   1,   1,1.00261, -22.1252,   1
    44,'44          ', 115.0000,1,     0.000,     0.000,   1,   1,1.00941, -24.3853,   1
    45,'45          ', 230.0000,1,     0.000,     0.000,   1,   1,1.02341, -22.6804,   1
    46,'46          ', 345.0000,1,     0.000,     0.000,   1,   1,1.03151, -19.6121,   1
    47,'47          ', 115.0000,1,     0.000,     0.000,   1,   1,0.98230, -29.9213,   1
    48,'48          ', 115.0000,1,     0.000,     0.000,   1,   1,1.00485, -19.4956,   1
    49,'49          ', 115.0000,1,     0.000,     0.000,   1,   1,1.04826,  -3.3763,   1
    51,'51          ', 115.0000,1,     0.000,     0.000,   1,   1,1.02320, -11.1631,   1
    52,'52          ', 115.0000,1,     0.000,     0.000,   1,   1,1.00287, -16.0037,   1
    53,'53          ', 115.0000,1,     0.000,     0.000,   1,   1,0.99945, -22.9471,   1
    54,'54          ', 115.0000,1,     0.000,     0.000,   1,   1,1.00784, -22.1049,   1
    55,'55          ', 115.0000,1,     0.000,     0.000,   1,   1,1.01982, -17.5850,   1
    57,'57          ', 115.0000,1,     0.000,     0.000,   1,   1,1.03931, -15.3080,   1
    58,'58          ', 115.0000,1,     0.000,     0.000,   1,   1,0.99978, -14.4708,   1
    59,'59          ', 115.0000,1,     0.000,     0.000,   1,   1,0.98812, -14.1595,   1
    60,'60          ', 230.0000,1,     0.000,     0.000,   1,   1,1.03024, -19.0315,   1
    61,'61          ', 115.0000,1,     0.000,     0.000,   1,   1,0.99754, -12.8065,   1
    62,'62          ', 230.0000,1,     0.000,     0.000,   1,   1,1.01996, -13.0188,   1
    63,'63          ', 115.0000,1,     0.000,     0.000,   1,   1,0.95830, -27.6765,   1
    64,'64          ', 230.0000,1,     0.000,     0.000,   1,   1,0.95160, -23.5103,   1
    69,'69          ', 115.0000,1,     0.000,     0.000,   1,   1,0.96638, -36.1477,   1
    70,'70          ', 115.0000,1,     0.000,     0.000,   1,   1,0.95772, -42.9983,   1
    71,'71          ', 115.0000,1,     0.000,     0.000,   1,   1,0.98546, -37.7852,   1
    72,'72          ', 115.0000,1,     0.000,     0.000,   1,   1,0.97341, -35.9368,   1
    73,'73          ', 115.0000,1,     0.000,     0.000,   1,   1,0.98107, -34.1795,   1
    74,'74          ', 230.0000,1,     0.000,     0.000,   1,   1,0.99772, -31.0083,   1
    76,'76          ', 115.0000,1,     0.000,     0.000,   1,   1,0.96320, -35.0582,   1
    77,'77          ', 115.0000,1,     0.000,     0.000,   1,   1,0.98536, -33.8870,   1
    78,'78          ', 115.0000,1,     0.000,     0.000,   1,   1,0.99160, -33.0499,   1
    79,'79          ', 115.0000,1,     0.000,     0.000,   1,   1,0.98469, -34.0165,   1
    80,'80          ', 115.0000,1,     0.000,     0.000,   1,   1,0.98906, -35.2430,   1
    81,'81          ', 345.0000,1,     0.000,     0.000,   1,   1,1.02931, -30.1781,   1
    84,'84          ', 115.0000,1,     0.000,     0.000,   1,   1,1.02499, -26.4148,   1
    85,'85          ', 230.0000,1,     0.000,     0.000,   1,   1,0.99110, -20.0465,   1
    86,'86          ', 230.0000,1,     0.000,     0.000,   1,   1,0.99786, -17.0212,   1
    87,'87          ', 230.0000,1,     0.000,     0.000,   1,   1,1.00087, -12.0620,   1
    88,'88          ', 230.0000,1,     0.000,     0.000,   1,   1,1.01260, -31.0978,   1
    89,'89          ', 115.0000,1,     0.000,     0.000,   1,   1,1.03443, -14.4568,   1
    90,'90          ', 115.0000,1,     0.000,     0.000,   1,   1,1.02965, -14.4606,   1
    91,'91          ', 115.0000,1,     0.000,     0.000,   1,   1,1.05200, -12.4488,   1
    92,'92          ', 115.0000,1,     0.000,     0.000,   1,   1,1.05200,  -9.2882,   1
    94,'94          ', 115.0000,1,     0.000,     0.000,   1,   1,0.99889, -13.2204,   1
    97,'97          ', 115.0000,1,     0.000,     0.000,   1,   1,1.02096, -15.8115,   1
    98,'98          ', 115.0000,1,     0.000,     0.000,   1,   1,1.00000, -16.7154,   1
    99,'99          ', 115.0000,1,     0.000,     0.000,   1,   1,0.98973, -22.3272,   1
   100,'100         ', 115.0000,1,     0.000,     0.000,   1,   1,1.00831, -16.8182,   1
   102,'102         ', 115.0000,1,     0.000,     0.000,   1,   1,1.00399, -17.6159,   1
   103,'103         ', 115.0000,1,     0.000,     0.000,   1,   1,1.03105, -14.7421,   1
   104,'104         ', 115.0000,1,     0.000,     0.000,   1,   1,0.99841, -19.5154,   1
   105,'105         ', 115.0000,1,     0.000,     0.000,   1,   1,1.02461, -15.6765,   1
   107,'107         ', 115.0000,1,     0.000,     0.000,   1,   1,1.01214, -18.9091,   1
   108,'108         ', 115.0000,1,     0.000,     0.000,   1,   1,0.99000, -22.2555,   1
   109,'109         ', 115.0000,1,     0.000,     0.000,   1,   1,0.97875, -29.6270,   1
   110,'110         ', 115.0000,1,     0.000,     0.000,   1,   1,0.97697, -27.4053,   1
   112,'112         ', 115.0000,1,     0.000,     0.000,   1,   1,0.97491, -33.6511,   1
   113,'113         ', 115.0000,1,     0.000,     0.000,   1,   1,0.97438, -31.2053,   1
   114,'114         ', 115.0000,1,     0.000,     0.000,   1,   1,0.97648, -33.8737,   1
   115,'115         ', 115.0000,1,     0.000,     0.000,   2,   2,0.95960, -12.0917,   1
   116,'116         ', 115.0000,1,     0.000,     0.000,   2,   2,1.03769,  -6.0682,   1
   117,'117         ', 115.0000,1,     0.000,   325.000,   2,   2,0.94986,  -0.3678,   1
   118,'118         ', 115.0000,1,     0.000,     0.000,   2,   2,0.94324,   0.5638,   1
   119,'119         ', 115.0000,1,     0.000,     0.000,   2,   2,1.04340,  13.2305,   1
   120,'120         ', 115.0000,1,     0.000,    55.000,   2,   2,1.02946,   8.9198,   1
   121,'121         ', 115.0000,1,     0.000,     0.000,   2,   2,0.88255,  -9.7878,   1
   122,'122         ', 115.0000,1,     0.000,     0.000,   2,   2,0.94047, -13.6400,   1
   123,'123         ', 115.0000,1,     0.000,     0.000,   2,   2,0.98641, -17.5846,   1
   124,'124         ', 115.0000,1,     0.000,     0.000,   2,   2,1.02329,  -8.6932,   1
   125,'125         ', 115.0000,1,     0.000,     0.000,   2,   2,1.01027, -24.8962,   1
   126,'126         ', 115.0000,1,     0.000,     0.000,   2,   2,0.98831, -20.3232,   1
   127,'127         ', 230.0000,1,     0.000,     0.000,   2,   2,0.99573, -24.1574,   1
   128,'128         ', 230.0000,1,     0.000,     0.000,   2,   2,0.99628, -20.9120,   1
   129,'129         ', 230.0000,1,     0.000,     0.000,   2,   2,0.99585, -20.1087,   1
   130,'130         ', 230.0000,1,     0.000,     0.000,   2,   2,1.01432,  -5.7595,   1
   131,'131         ', 230.0000,1,     0.000,     0.000,   2,   2,0.98330,  -3.1359,   1
   132,'132         ', 230.0000,1,     0.000,     0.000,   2,   2,1.00156,  -8.0393,   1
   133,'133         ', 230.0000,1,     0.000,     0.000,   2,   2,0.99842, -23.6301,   1
   134,'134         ', 230.0000,1,     0.000,     0.000,   2,   2,1.02246, -23.7238,   1
   135,'135         ', 230.0000,1,     0.000,     0.000,   2,   2,1.02301, -24.0303,   1
   136,'136         ', 230.0000,1,     0.000,     0.000,   2,   2,1.05049, -19.0970,   1
   137,'137         ', 230.0000,1,     0.000,     0.000,   2,   2,1.04454, -24.6973,   1
   138,'138         ', 230.0000,1,     0.000,     0.000,   2,   2,1.05496, -34.1846,   1
   139,'139         ', 115.0000,1,     0.000,     0.000,   2,   2,1.01088, -27.0291,   1
   140,'140         ', 230.0000,1,     0.000,     0.000,   2,   2,1.04078, -26.5172,   1
   141,'141         ', 230.0000,1,     0.000,     0.000,   2,   2,1.05099, -23.0540,   1
   142,'142         ', 230.0000,1,     0.000,     0.000,   2,   2,1.01218, -23.5279,   1
   143,'143         ', 230.0000,1,     0.000,     0.000,   2,   2,1.04349, -15.2932,   1
   144,'144         ', 230.0000,1,     0.000,     0.000,   2,   2,1.01863, -13.1866,   1
   145,'145         ', 230.0000,1,     0.000,     0.000,   2,   2,1.00760, -20.9911,   1
   146,'146         ', 230.0000,1,     0.000,     0.000,   2,   2,1.05280, -17.6383,   1
   147,'147         ', 230.0000,1,     0.000,     0.000,   2,   2,1.05280, -13.9777,   1
   148,'148         ', 230.0000,1,     0.000,     0.000,   2,   2,1.05787, -19.3541,   1
   149,'149         ', 230.0000,1,     0.000,     0.000,   2,   2,1.07350, -14.8025,   1
   150,'150         ', 230.0000,1,     0.000,     0.000,   2,   2,0.98379,  -3.0528,   1
   151,'151         ', 230.0000,1,     0.000,     0.000,   2,   2,1.00133,  -7.2064,   1
   152,'152         ', 230.0000,1,     0.000,     0.000,   2,   2,1.05351, -12.2925,   1
   153,'153         ', 230.0000,1,     0.000,     0.000,   2,   2,1.04350, -12.3987,   1
   154,'154         ', 115.0000,1,     0.000,    34.500,   2,   2,0.96710, -24.9818,   1
   155,'155         ', 230.0000,1,     0.000,     0.000,   2,   2,1.01866, -16.7869,   1
   156,'156         ', 115.0000,1,     0.000,     0.000,   2,   2,0.96300, -18.3667,   1
   157,'157         ', 230.0000,1,     0.000,     0.000,   2,   2,0.95594, -11.7152,   1
   158,'158         ', 230.0000,1,     0.000,     0.000,   2,   2,0.97176, -11.7883,   1
   159,'159         ', 230.0000,1,     0.000,     0.000,   2,   2,0.94603,  -8.1697,   1
   160,'160         ', 230.0000,1,     0.000,     0.000,   2,   2,0.98992, -10.1350,   1
   161,'161         ', 230.0000,1,     0.000,     0.000,   2,   2,1.03621, -14.2405,   1
   162,'162         ', 230.0000,1,     0.000,     0.000,   2,   2,0.99543,  -5.7990,   1
   163,'163         ', 230.0000,1,     0.000,     0.000,   2,   2,1.04024, -20.5228,   1
   164,'164         ', 230.0000,1,     0.000,  -212.000,   2,   2,0.98587, -14.0815,   1
   165,'165         ', 230.0000,1,     0.000,     0.000,   2,   2,1.00294,   1.5863,   1
   166,'166         ', 230.0000,1,     0.000,  -103.000,   2,   2,0.99901,   5.2931,   1
   167,'167         ', 230.0000,1,     0.000,     0.000,   2,   2,0.96176, -22.0725,   1
   168,'168         ', 230.0000,1,     0.000,     0.000,   2,   2,0.99636, -20.9455,   1
   169,'169         ', 230.0000,1,     0.000,     0.000,   2,   2,0.98107, -22.6628,   1
   170,'170         ', 115.0000,1,     0.000,     0.000,   2,   2,0.92899, -11.2678,   1
   171,'171         ', 115.0000,1,     0.000,     0.000,   2,   2,0.98288, -28.1252,   1
   172,'172         ', 115.0000,1,     0.000,     0.000,   2,   2,1.02469, -29.2550,   1
   173,'173         ', 115.0000,1,     0.000,    53.000,   2,   2,0.98294, -34.9454,   1
   174,'174         ', 115.0000,1,     0.000,     0.000,   2,   2,1.06221, -25.6775,   1
   175,'175         ', 115.0000,1,     0.000,     0.000,   2,   2,0.97233, -28.2148,   1
   176,'176         ', 115.0000,1,     0.000,     0.000,   2,   2,1.05220, -17.1735,   1
   177,'177         ', 115.0000,1,     0.000,     0.000,   2,   2,1.00770, -20.8220,   1
   178,'178         ', 115.0000,1,     0.000,     0.000,   2,   2,0.93909, -27.3567,   1
   179,'179         ', 115.0000,1,     0.000,    45.000,   2,   2,0.96837, -29.9497,   1
   180,'180         ', 115.0000,1,     0.000,     0.000,   2,   2,0.97873, -23.9120,   1
   181,'181         ', 230.0000,1,     0.000,     0.000,   2,   2,1.04825, -25.2767,   1
   182,'182         ', 230.0000,1,     0.000,     0.000,   2,   2,1.04271, -27.4220,   1
   183,'183         ', 115.0000,1,     0.000,     0.000,   2,   2,0.97176, -15.7912,   1
   184,'184         ', 230.0000,1,     0.000,     0.000,   2,   2,1.03883, -22.7246,   1
   185,'185         ', 230.0000,1,     0.000,     0.000,   2,   2,1.05220, -20.3346,   1
   186,'186         ', 230.0000,1,     0.000,     0.000,   2,   2,1.06497, -21.6729,   1
   187,'187         ', 230.0000,1,     0.000,     0.000,   2,   2,1.06497, -22.6718,   1
   188,'188         ', 230.0000,1,     0.000,     0.000,   2,   2,1.05041, -24.6502,   1
   189,'189         ',  66.0000,1,     0.000,     0.000,   3,   3,0.99461, -37.7279,   1
   190,'190         ', 345.0000,1,     0.000,  -150.000,   3,   3,1.05510, -36.5322,   1
   191,'191         ', 230.0000,1,     0.000,     0.000,   3,   3,1.04344, -10.6750,   1
   192,'192         ', 230.0000,1,     0.000,     0.000,   3,   3,0.94892, -32.3816,   1
   193,'192         ',  66.0000,1,     0.000,     0.000,   3,   3,0.98635, -37.4061,   1
   194,'194         ', 345.0000,1,     0.000,     0.000,   3,   3,1.04452, -32.8268,   1
   195,'195         ', 345.0000,1,     0.000,     0.000,   3,   3,1.03262, -34.2290,   1
   196,'196         ', 115.0000,1,     0.000,     0.000,   3,   3,0.97099, -37.6191,   1
   197,'197         ', 115.0000,1,     0.000,     0.000,   3,   3,0.99106, -36.2269,   1
   198,'198         ', 115.0000,1,     0.000,     0.000,   3,   3,1.01499, -33.3237,   1
   199,'199         ', 115.0000,1,     0.000,     0.000,   3,   3,0.95229, -38.8602,   1
   200,'200         ', 115.0000,1,     0.000,     0.000,   3,   3,0.95284, -39.0227,   1
   201,'201         ',  66.0000,1,     0.000,     0.000,   1,   1,0.97594, -37.9016,   1
   202,'202         ',  66.0000,1,     0.000,     0.000,   3,   3,0.99081, -37.9070,   1
   203,'203         ', 115.0000,1,     0.000,     0.000,   3,   3,1.00326, -35.0082,   1
   204,'204         ',  66.0000,1,     0.000,     0.000,   3,   3,0.97128, -36.8430,   1
   205,'205         ',  66.0000,1,     0.000,     0.000,   3,   3,0.98227, -37.0953,   1
   206,'206         ',  66.0000,1,     0.000,     0.000,   3,   3,1.00282, -35.7358,   1
   207,'207         ',  66.0000,1,     0.000,     0.000,   1,   1,1.02305, -34.5280,   1
   208,'208         ',  66.0000,1,     0.000,     0.000,   3,   3,0.98943, -37.5620,   1
   209,'209         ',  66.0000,1,     0.000,     0.000,   3,   3,0.99653, -37.7912,   1
   210,'210         ', 115.0000,1,     0.000,     0.000,   3,   3,0.97913, -36.8378,   1
   211,'211         ', 115.0000,1,     0.000,     0.000,   3,   3,1.00137, -35.8650,   1
   212,'212         ', 138.0000,1,     0.000,     0.000,   3,   3,1.01174, -35.4945,   1
   213,'213         ',  16.5000,1,     0.000,     0.000,   3,   3,1.01000, -26.9306,   1
   214,'214         ', 138.0000,1,     0.000,     0.000,   3,   3,0.99171, -32.5030,   1
   215,'215         ', 138.0000,1,     0.000,     0.000,   3,   3,0.98577, -35.0191,   1
   216,'216         ', 138.0000,1,     0.000,     0.000,   3,   3,0.97368, -37.6562,   1
   217,'217         ', 138.0000,1,     0.000,     0.000,   3,   3,1.02058, -37.9635,   1
   218,'218         ', 138.0000,1,     0.000,     0.000,   3,   3,1.00682, -38.5369,   1
   219,'219         ', 345.0000,1,     0.000,     0.000,   3,   3,1.05420, -36.7388,   1
   220,'220         ', 138.0000,1,     0.000,     0.000,   3,   3,1.00800, -38.2605,   1
   221,'221         ', 138.0000,1,     0.000,     0.000,   3,   3,0.99998, -39.5231,   1
   222,'222         ',  20.0000,1,     0.000,     0.000,   3,   3,1.04999, -39.3057,   1
   223,'223         ', 138.0000,1,     0.000,     0.000,   3,   3,0.99664, -39.7411,   1
   224,'224         ', 230.0000,1,     0.000,     0.000,   3,   3,1.00574, -38.7083,   1
   225,'225         ', 230.0000,1,     0.000,     0.000,   3,   3,0.95721, -32.2684,   1
   226,'226         ', 230.0000,1,     0.000,     0.000,   3,   3,1.02267, -38.3754,   1
   227,'227         ',  27.0000,1,     0.000,     0.000,   3,   3,0.99997, -43.4679,   1
   228,'228         ', 138.0000,1,     0.000,     0.000,   3,   3,1.04249, -37.2391,   1
   229,'229         ', 138.0000,1,     0.000,     0.000,   3,   3,1.04974, -36.2636,   1
   230,'230         ',  20.0000,1,     0.000,     0.000,   3,   3,1.04000, -30.4404,   1
   231,'231         ', 345.0000,1,     0.000,  -300.000,   3,   3,1.05281, -37.0874,   1
   232,'232         ', 138.0000,1,     0.000,     0.000,   3,   3,1.04075, -39.1168,   1
   233,'233         ',  66.0000,1,     0.000,     0.000,   3,   3,0.99999, -42.2107,   1
   234,'234         ', 138.0000,1,     0.000,     0.000,   3,   3,1.03867, -37.2696,   1
   235,'235         ', 138.0000,1,     0.000,     0.000,   3,   3,1.00953, -37.6242,   1
   236,'236         ',  20.0000,1,     0.000,     0.000,   3,   3,1.01647, -32.0441,   1
   237,'237         ', 345.0000,1,     0.000,     0.000,   3,   3,1.05492, -36.9139,   1
   238,'238         ', 138.0000,1,     0.000,  -150.000,   3,   3,1.00998, -37.5417,   1
   239,'239         ', 138.0000,1,     0.000,     0.000,   3,   3,0.99999, -32.7096,   1
   240,'240         ', 230.0000,1,     0.000,  -140.000,   3,   3,1.02378, -36.0494,   1
   241,'241         ',  20.0000,1,     0.000,     0.000,   3,   3,1.05000, -32.5446,   1
   242,'242         ', 138.0000,1,     0.000,     0.000,   3,   3,0.99299, -32.5245,   1
   243,'243         ',  66.0000,1,     0.000,     0.000,   3,   3,1.00999, -34.4258,   1
   244,'244         ',  66.0000,1,     0.000,     0.000,   3,   3,0.99231, -35.3083,   1
   245,'245         ',  66.0000,1,     0.000,     0.000,   3,   3,0.97130, -35.8946,   1
   246,'246         ',  66.0000,1,     0.000,     0.000,   3,   3,0.96546, -36.7452,   1
   247,'247         ',  66.0000,1,     0.000,     0.000,   3,   3,0.96932, -36.4723,   1
   248,'248         ',  66.0000,1,     0.000,    45.600,   3,   3,0.97832, -39.3915,   1
   249,'249         ',  66.0000,1,     0.000,     0.000,   3,   3,0.97755, -39.8139,   1
   250,'250         ',  66.0000,1,     0.000,     0.000,   3,   3,1.02181, -37.9643,   1
   281,'281         ', 230.0000,1,     0.000,     0.000,   3,   3,1.02513, -35.9766,   1
   319,'319         ', 230.0000,1,     0.000,     0.000,   1,   1,1.01650,  -3.8638,   1
   320,'320         ', 115.0000,1,     0.000,     0.000,   1,   1,1.02159,  -7.0704,   1
   322,'322         ', 115.0000,1,     0.000,     0.000,   1,   1,1.00246, -19.7568,   1
   323,'323         ', 230.0000,1,     0.000,     0.000,   1,   1,0.99013, -16.6170,   1
   324,'324         ', 115.0000,1,     0.000,     0.000,   1,   1,0.97825, -24.8721,   1
   526,'526         ', 115.0000,1,     0.000,     0.000,   1,   1,0.95166, -44.3743,   1
   528,'528         ', 115.0000,1,     0.000,     0.000,   1,   1,0.97869, -45.3856,   1
   531,'531         ', 115.0000,1,     0.000,     0.000,   1,   1,0.96593, -37.2684,   1
   552,'552         ', 115.0000,1,     0.000,     0.000,   1,   1,1.00028, -32.5919,   1
   562,'562         ', 230.0000,1,     0.000,     0.000,   1,   1,0.97911, -36.9944,   1
   609,'609         ', 115.0000,1,     0.000,     0.000,   1,   1,0.96515, -37.0553,   1
   664,'664         ', 345.0000,1,     0.000,     0.000,   3,   3,1.02642, -30.5950,   1
  1190,'1190        ',  86.0000,1,     0.000,     0.000,   1,   1,1.03709,  12.2314,   1
  1200,'1200        ',  86.0000,1,     0.000,     0.000,   1,   1,1.02293,   9.9564,   1
  1201,'1201        ', 115.0000,1,     0.000,     0.000,   2,   2,1.19160,  18.8505,   1
  2040,'2040        ', 115.0000,1,     0.000,     0.000,   3,   3,0.96692, -27.1421,   1
  7001,'7001        ',  13.8000,1,     0.000,     0.000,   1,   1,1.05069,   3.0849,   1
  7002,'7002        ',  13.8000,1,     0.000,     0.000,   1,   1,1.05069,   4.6898,   1
  7003,'7003        ',  13.8000,1,     0.000,     0.000,   1,   1,1.03226,   4.9365,   1
  7011,'7011        ',  13.8000,1,     0.000,     0.000,   1,   1,1.01450,  -1.5270,   1
  7012,'7012        ',  13.8000,1,     0.000,     0.000,   1,   1,1.05068,   3.6291,   1
  7017,'7017        ',  13.8000,1,     0.000,     0.000,   1,   1,1.05067, -13.6437,   1
  7023,'7023        ',  13.8000,1,     0.000,     0.000,   1,   1,1.05070,   0.4129,   1
  7024,'7024        ',  13.8000,1,     0.000,     0.000,   1,   1,1.02899,   6.1387,   1
  7039,'7039        ',  20.0000,1,     0.000,     0.000,   1,   1,1.04999,  -5.0331,   1
  7044,'7044        ',  13.8000,1,     0.000,     0.000,   1,   1,1.01450, -21.0094,   1
  7049,'7049        ',  13.8000,1,     0.000,     0.000,   1,   1,1.05070,   0.5021,   1
  7055,'7055        ',  13.8000,1,     0.000,     0.000,   1,   1,0.99670, -13.1220,   1
  7057,'7057        ',  13.8000,1,     0.000,     0.000,   1,   1,1.02119, -10.9981,   1
  7061,'7061        ',  13.8000,1,     0.000,     0.000,   1,   1,1.01449,  -7.6703,   1
  7062,'7062        ',  13.8000,1,     0.000,     0.000,   1,   1,1.00169,  -6.4867,   1
  7071,'7071        ',  13.8000,1,     0.000,     0.000,   1,   1,0.98929, -33.5020,   1
  7130,'7130        ',  13.8000,1,     0.000,     0.000,   2,   2,1.05067,   7.1060,   1
  7139,'7139        ',  13.8000,1,     0.000,     0.000,   2,   2,1.05067, -21.0168,   1
  7166,'7166        ',  13.8000,1,     0.000,     0.000,   2,   2,1.01449,   9.8797,   1
  9001,'9001        ', 115.0000,1,     0.000,     0.000,   1,   9,1.01498, -14.8951,   1
  9002,'9002        ',   6.6000,1,     0.000,     0.000,   1,   9,0.99450, -22.5183,   1
  9003,'9003        ',   6.6000,1,     0.140,     2.400,   1,   9,0.98005, -23.3819,   1
  9004,'9004        ',   6.6000,1,     0.000,     0.000,   1,   9,0.97351, -23.5199,   1
  9005,'9005        ', 115.0000,1,     0.000,     0.000,   1,   9,1.01494, -14.9740,   1
  9006,'9006        ',   6.6000,1,     0.000,     0.000,   1,   9,0.99977, -21.1074,   1
  9007,'9007        ',   6.6000,1,     0.000,     0.000,   1,   9,0.98816, -22.3759,   1
  9012,'9012        ',   6.6000,1,     0.000,     0.000,   1,   9,1.00200, -20.9242,   1
  9021,'9021        ',   6.6000,1,     0.000,     0.000,   1,   9,0.98872, -22.7390,   1
  9022,'9022        ',   0.6000,1,     0.080,     0.000,   1,   9,0.96488, -25.3114,   1
  9023,'9023        ',   6.6000,1,     0.000,     0.000,   1,   9,0.97470, -23.0482,   1
  9024,'9024        ',   0.6000,1,     0.070,     0.000,   1,   9,0.97050, -25.0843,   1
  9025,'9025        ',   0.6000,1,     0.020,     0.000,   1,   9,0.96476, -24.1093,   1
  9026,'9026        ',   0.6000,1,     0.020,     0.000,   1,   9,0.96561, -24.0201,   1
  9031,'9031        ',   0.6000,1,     0.100,     0.000,   1,   9,0.92824, -28.7612,   1
  9032,'9032        ',   0.6000,1,     0.070,     0.000,   1,   9,0.94063, -27.5638,   1
  9033,'9033        ',   0.6000,1,     0.100,     0.000,   1,   9,0.92528, -29.0789,   1
  9034,'9034        ',   0.6000,1,     0.080,     1.720,   1,   9,0.99384, -24.8038,   1
  9035,'9035        ',   0.6000,1,     0.090,     0.000,   1,   9,0.94701, -26.9041,   1
  9036,'9036        ',   2.3000,1,     0.000,     0.000,   1,   9,0.95632, -26.3877,   1
  9037,'9037        ',   0.6000,1,     0.100,     0.000,   1,   9,0.95364, -26.3073,   1
  9038,'9038        ',   0.6000,1,     0.140,     0.000,   1,   9,0.93569, -28.1517,   1
  9041,'9041        ',   0.6000,1,     0.050,     0.000,   1,   9,0.96020, -25.0314,   1
  9042,'9042        ',   0.6000,1,     0.040,     0.000,   1,   9,0.94686, -26.2038,   1
  9043,'9043        ',   2.3000,1,     0.000,     0.000,   1,   9,0.96133, -25.1349,   1
  9044,'9044        ',   6.6000,1,     0.000,     0.000,   1,   9,0.97570, -23.4795,   1
  9051,'9051        ',  13.8000,1,     0.000,     0.000,   1,   9,1.00000, -23.1826,   1
  9052,'9052        ',  13.8000,1,     0.000,     0.000,   1,   9,0.98249, -20.8566,   1
  9053,'9053        ',  13.8000,1,     0.000,     0.000,   1,   9,1.00000, -21.3415,   1
  9054,'9054        ',  13.8000,1,     0.000,     0.000,   1,   9,1.00000, -10.7095,   1
  9055,'9055        ',  13.8000,1,     0.000,     0.000,   1,   9,1.00000, -11.3838,   1
  9071,'9071        ',   0.6000,1,     0.050,     0.000,   1,   9,0.97215, -24.1726,   1
  9072,'9072        ',   0.6000,1,     0.050,     0.000,   1,   9,0.97719, -23.6153,   1
  9121,'9121        ',   6.6000,1,     0.000,     0.000,   1,   9,0.97960, -22.9496,   1
  9533,'9533        ',   2.3000,1,     0.100,     0.000,   1,   9,1.04052, -21.8553,   1
 10000,'10000       ',  13.8000,2,     0.000,     0.000,   1,   1,1.01530,  -4.1116,   1
 10001,'10001       ',  13.8000,2,     0.000,     0.000,   1,   1,1.02050,  -5.3518,   1
 10002,'10002       ',  13.8000,2,     0.000,     0.000,   1,   1,1.00100,  -8.0269,   1
 10003,'10003       ',  13.8000,2,     0.000,     0.000,   1,   1,0.95830, -27.6765,   1
 10004,'10004       ',  13.8000,2,     0.000,     0.000,   1,   1,0.96320, -35.0582,   1
 10005,'10005       ',  20.0000,2,     0.000,     0.000,   1,   1,1.02500, -26.4129,   1
 10006,'10006       ',  18.0000,2,     0.000,     0.000,   1,   1,1.05200, -12.4481,   1
 10007,'10007       ',  24.0000,2,     0.000,     0.000,   1,   1,1.05200,  -9.2867,   1
 10008,'10008       ',  15.5000,2,     0.000,     0.000,   1,   1,1.00000, -16.7150,   1
 10009,'10009       ',  18.0000,2,     0.000,     0.000,   1,   1,0.99000, -22.2549,   1
 10010,'10010       ',  26.0000,2,     0.000,     0.000,   2,   1,1.04350,  13.2402,   1
 10011,'10011       ',  24.0000,2,     0.000,     0.000,   2,   1,1.02330,  -8.6919,   1
 10012,'10012       ',  13.8000,2,     0.000,     0.000,   2,   1,1.01030, -24.8962,   1
 10013,'10013       ',  26.0000,2,     0.000,     0.000,   2,   1,1.05500, -34.1893,   1
 10014,'10014       ',  24.0000,2,     0.000,     0.000,   2,   1,1.05100, -23.0526,   1
 10015,'10015       ',  26.0000,2,     0.000,     0.000,   2,   1,1.04350, -15.2898,   1
 10016,'10016       ',  15.5000,2,     0.000,     0.000,   2,   1,1.05280, -17.6379,   1
 10017,'10017       ',  24.0000,2,     0.000,     0.000,   2,   1,1.05280, -13.9766,   1
 10018,'10018       ',  18.0000,2,     0.000,     0.000,   2,   1,1.07350, -14.8020,   1
 10019,'10019       ',  20.0000,2,     0.000,     0.000,   2,   1,1.05350, -12.2907,   1
 10020,'10020       ',  24.0000,2,     0.000,     0.000,   2,   1,1.04350, -12.3976,   1
 10021,'10021       ',  13.8000,2,     0.000,     0.000,   2,   1,0.96300, -18.3667,   1
 10022,'10022       ',  24.0000,2,     0.000,     0.000,   2,   1,0.92900, -11.2665,   1
 10023,'10023       ',  13.8000,2,     0.000,     0.000,   2,   1,0.98290, -28.1252,   1
 10024,'10024       ',  24.0000,2,     0.000,     0.000,   2,   1,1.05220, -17.1723,   1
 10025,'10025       ',  18.0000,2,     0.000,     0.000,   2,   1,1.00770, -20.8215,   1
 10026,'10026       ',  24.0000,2,     0.000,     0.000,   2,   1,1.05220, -20.3336,   1
 10027,'10027       ',  26.0000,2,     0.000,     0.000,   2,   1,1.06500, -21.6672,   1
 10028,'10028       ',  26.0000,2,     0.000,     0.000,   2,   1,1.06500, -22.6660,   1
 10029,'10029       ',  20.0000,2,     0.000,     0.000,   3,   1,1.05510, -36.5298,   1
 10030,'10030       ',  26.0000,2,     0.000,     0.000,   3,   1,1.04350, -10.6651,   1
 10031,'10031       ',  20.0000,2,     0.000,     0.000,   3,   1,1.01500, -33.3214,   1
 10032,'10032       ',  24.0000,2,     0.000,     0.000,   3,   1,1.01000, -26.9291,   1
 10033,'10033       ',  18.0000,2,     0.000,     0.000,   3,   1,1.00800, -38.2599,   1
 10034,'10034       ',  20.0000,2,     0.000,     0.000,   3,   1,1.00000, -39.5206,   1