1004, 'GENSAL', 1,   7.00000,     0.300000E-01, 0.350000E-01,  3.00000,     1.00000,      1.20000,      0.80000,     0.220000,     0.200000,     0.160000,     0.050000,     0.300000     /
1004, 'ESST1A', 1,   1, 1, 0.000,  999.000,     -999.000,     1.000000,      10.0000,      0.00000,      0.00000,      178.900,  0.02000000,    999.000,     -999.000,      10.0000,     -10.0000,     0.050000,      0.00000,      1.00000,      0.00000,      0.00000 /
1009, 'GENSAL', 1,   7.00000,     0.300000E-01, 0.350000E-01,  3.00000,     1.00000,      1.20000,      0.80000,     0.220000,     0.200000,     0.160000,     0.050000,     0.300000     /
1009, 'ESST1A', 1,   1, 1, 0.000,  999.000,     -999.000,     1.000000,      10.0000,      0.00000,      0.00000,      178.900,  0.02000000,    999.000,     -999.000,      10.0000,     -10.0000,     0.050000,      0.00000,      1.00000,      0.00000,      0.00000 /
1021, 'GENSAL', 1,   7.00000,     0.300000E-01, 0.350000E-01,  3.00000,     1.00000,      1.20000,      0.80000,     0.220000,     0.200000,     0.160000,     0.050000,     0.300000     /
1021, 'ESST1A', 1,   1, 1, 0.000,  999.000,     -999.000,     1.000000,      10.0000,      0.00000,      0.00000,      178.900,  0.02000000,    999.000,     -999.000,      10.0000,     -10.0000,     0.050000,      0.00000,      1.00000,      0.00000,      0.00000 /
1023, 'GENSAL', 1,   7.00000,     0.300000E-01, 0.350000E-01,  3.00000,     1.00000,      1.20000,      0.80000,     0.220000,     0.200000,     0.160000,     0.050000,     0.300000     /
1023, 'ESST1A', 1,   1, 1, 0.000,  999.000,     -999.000,     1.000000,      10.0000,      0.00000,      0.00000,      178.900,  0.02000000,    999.000,     -999.000,      10.0000,     -10.0000,     0.050000,      0.00000,      1.00000,      0.00000,      0.00000 /
1026, 'GENSAL', 1,   7.00000,     0.300000E-01, 0.350000E-01,  3.00000,     1.00000,      1.20000,      0.80000,     0.220000,     0.200000,     0.160000,     0.050000,     0.300000     /
1026, 'ESST1A', 1,   1, 1, 0.000,  999.000,     -999.000,     1.000000,      10.0000,      0.00000,      0.00000,      178.900,  0.02000000,    999.000,     -999.000,      10.0000,     -10.0000,     0.050000,      0.00000,      1.00000,      0.00000,      0.00000 /
1033, 'GENSAL', 1,   7.00000,     0.300000E-01, 0.350000E-01,  3.00000,     1.00000,      1.20000,      0.80000,     0.220000,     0.200000,     0.160000,     0.050000,     0.300000     /
1033, 'ESST1A', 1,   1, 1, 0.000,  999.000,     -999.000,     1.000000,      10.0000,      0.00000,      0.00000,      178.900,  0.02000000,    999.000,     -999.000,      10.0000,     -10.0000,     0.050000,      0.00000,      1.00000,      0.00000,      0.00000 /
1035, 'GENSAL', 1,   7.00000,     0.300000E-01, 0.350000E-01,  3.00000,     1.00000,      1.20000,      0.80000,     0.220000,     0.200000,     0.160000,     0.050000,     0.300000     /
1035, 'ESST1A', 1,   1, 1, 0.000,  999.000,     -999.000,     1.000000,      10.0000,      0.00000,      0.00000,      178.900,  0.02000000,    999.000,     -999.000,      10.0000,     -10.0000,     0.050000,      0.00000,      1.00000,      0.00000,      0.00000 /
1039, 'GENSAL', 1,   7.00000,     0.300000E-01, 0.350000E-01,  3.00000,     1.00000,      1.20000,      0.80000,     0.220000,     0.200000,     0.160000,     0.050000,     0.300000     /
1039, 'ESST1A', 1,   1, 1, 0.000,  999.000,     -999.000,     1.000000,      10.0000,      0.00000,      0.00000,      178.900,  0.02000000,    999.000,     -999.000,      10.0000,     -10.0000,     0.050000,      0.00000,      1.00000,      0.00000,      0.00000 /
1042, 'GENSAL', 1,   7.00000,     0.300000E-01, 0.350000E-01,  3.00000,     1.00000,      1.20000,      0.80000,     0.220000,     0.200000,     0.160000,     0.050000,     0.300000     /
1042, 'ESST1A', 1,   1, 1, 0.000,  999.000,     -999.000,     1.000000,      10.0000,      0.00000,      0.00000,      178.900,  0.02000000,    999.000,     -999.000,      10.0000,     -10.0000,     0.050000,      0.00000,      1.00000,      0.00000,      0.00000 /
1043, 'GENSAL', 1,   7.00000,     0.300000E-01, 0.350000E-01,  3.00000,     1.00000,      1.20000,      0.80000,     0.220000,     0.200000,     0.160000,     0.050000,     0.300000     /
1043, 'ESST1A', 1,   1, 1, 0.000,  999.000,     -999.000,     1.000000,      10.0000,      0.00000,      0.00000,      178.900,  0.02000000,    999.000,     -999.000,      10.0000,     -10.0000,     0.050000,      0.00000,      1.00000,      0.00000,      0.00000 /
1048, 'GENSAL', 1,   7.00000,     0.300000E-01, 0.350000E-01,  3.00000,     1.00000,      1.20000,      0.80000,     0.220000,     0.200000,     0.160000,     0.050000,     0.300000     /
1048, 'ESST1A', 1,   1, 1, 0.000,  999.000,     -999.000,     1.000000,      10.0000,      0.00000,      0.00000,      178.900,  0.02000000,    999.000,     -999.000,      10.0000,     -10.0000,     0.050000,      0.00000,      1.00000,      0.00000,      0.00000 /
1049, 'GENSAL', 1,   7.00000,     0.300000E-01, 0.350000E-01,  3.00000,     1.00000,      1.20000,      0.80000,     0.220000,     0.200000,     0.160000,     0.050000,     0.300000     /
1049, 'ESST1A', 1,   1, 1, 0.000,  999.000,     -999.000,     1.000000,      10.0000,      0.00000,      0.00000,      178.900,  0.02000000,    999.000,     -999.000,      10.0000,     -10.0000,     0.050000,      0.00000,      1.00000,      0.00000,      0.00000 /
1050, 'GENSAL', 1,   7.00000,     0.300000E-01, 0.350000E-01,  3.00000,     1.00000,      1.20000,      0.80000,     0.220000,     0.200000,     0.160000,     0.050000,     0.300000     /
1050, 'ESST1A', 1,   1, 1, 0.000,  999.000,     -999.000,     1.000000,      10.0000,      0.00000,      0.00000,      178.900,  0.02000000,    999.000,     -999.000,      10.0000,     -10.0000,     0.050000,      0.00000,      1.00000,      0.00000,      0.00000 /
1051, 'GENSAL', 1,   7.00000,     0.300000E-01, 0.350000E-01,  3.00000,     1.00000,      1.20000,      0.80000,     0.220000,     0.200000,     0.160000,     0.050000,     0.300000     /
1051, 'ESST1A', 1,   1, 1, 0.000,  999.000,     -999.000,     1.000000,      10.0000,      0.00000,      0.00000,      178.900,  0.02000000,    999.000,     -999.000,      10.0000,     -10.0000,     0.050000,      0.00000,      1.00000,      0.00000,      0.00000 /
1052, 'GENSAL', 1,   7.00000,     0.300000E-01, 0.350000E-01,  3.00000,     1.00000,      1.20000,      0.80000,     0.220000,     0.200000,     0.160000,     0.050000,     0.300000     /
1052, 'ESST1A', 1,   1, 1, 0.000,  999.000,     -999.000,     1.000000,      10.0000,      0.00000,      0.00000,      178.900,  0.02000000,    999.000,     -999.000,      10.0000,     -10.0000,     0.050000,      0.00000,      1.00000,      0.00000,      0.00000 /
1053, 'GENSAL', 1,   7.00000,     0.300000E-01, 0.350000E-01,  3.00000,     1.00000,      1.20000,      0.80000,     0.220000,     0.200000,     0.160000,     0.050000,     0.300000     /
1053, 'ESST1A', 1,   1, 1, 0.000,  999.000,     -999.000,     1.000000,      10.0000,      0.00000,      0.00000,      178.900,  0.02000000,    999.000,     -999.000,      10.0000,     -10.0000,     0.050000,      0.00000,      1.00000,      0.00000,      0.00000 /
1057, 'GENSAL', 1,   7.00000,     0.300000E-01, 0.350000E-01,  3.00000,     1.00000,      1.20000,      0.80000,     0.220000,     0.200000,     0.160000,     0.050000,     0.300000     /
1057, 'ESST1A', 1,   1, 1, 0.000,  999.000,     -999.000,     1.000000,      10.0000,      0.00000,      0.00000,      178.900,  0.02000000,    999.000,     -999.000,      10.0000,     -10.0000,     0.050000,      0.00000,      1.00000,      0.00000,      0.00000 /
1059, 'GENSAL', 1,   7.00000,     0.300000E-01, 0.350000E-01,  3.00000,     1.00000,      1.20000,      0.80000,     0.220000,     0.200000,     0.160000,     0.050000,     0.300000     /
1059, 'ESST1A', 1,   1, 1, 0.000,  999.000,     -999.000,     1.000000,      10.0000,      0.00000,      0.00000,      178.900,  0.02000000,    999.000,     -999.000,      10.0000,     -10.0000,     0.050000,      0.00000,      1.00000,      0.00000,      0.00000 /
1060, 'GENSAL', 1,   7.00000,     0.300000E-01, 0.350000E-01,  3.00000,     1.00000,      1.20000,      0.80000,     0.220000,     0.200000,     0.160000,     0.050000,     0.300000     /
1060, 'ESST1A', 1,   1, 1, 0.000,  999.000,     -999.000,     1.000000,      10.0000,      0.00000,      0.00000,      178.900,  0.02000000,    999.000,     -999.000,      10.0000,     -10.0000,     0.050000,      0.00000,      1.00000,      0.00000,      0.00000 /
1062, 'GENSAL', 1,   7.00000,     0.300000E-01, 0.350000E-01,  3.00000,     1.00000,      1.20000,      0.80000,     0.220000,     0.200000,     0.160000,     0.050000,     0.300000     /
1062, 'ESST1A', 1,   1, 1, 0.000,  999.000,     -999.000,     1.000000,      10.0000,      0.00000,      0.00000,      178.900,  0.02000000,    999.000,     -999.000,      10.0000,     -10.0000,     0.050000,      0.00000,      1.00000,      0.00000,      0.00000 /
1063, 'GENSAL', 1,   7.00000,     0.300000E-01, 0.350000E-01,  3.00000,     1.00000,      1.20000,      0.80000,     0.220000,     0.200000,     0.160000,     0.050000,     0.300000     /
1063, 'ESST1A', 1,   1, 1, 0.000,  999.000,     -999.000,     1.000000,      10.0000,      0.00000,      0.00000,      178.900,  0.02000000,    999.000,     -999.000,      10.0000,     -10.0000,     0.050000,      0.00000,      1.00000,      0.00000,      0.00000 /
1066, 'GENSAL', 1,   7.00000,     0.300000E-01, 0.350000E-01,  3.00000,     1.00000,      1.20000,      0.80000,     0.220000,     0.200000,     0.160000,     0.050000,     0.300000     /
1066, 'ESST1A', 1,   1, 1, 0.000,  999.000,     -999.000,     1.000000,      10.0000,      0.00000,      0.00000,      178.900,  0.02000000,    999.000,     -999.000,      10.0000,     -10.0000,     0.050000,      0.00000,      1.00000,      0.00000,      0.00000 /
1070, 'GENSAL', 1,   7.00000,     0.300000E-01, 0.350000E-01,  3.00000,     1.00000,      1.20000,      0.80000,     0.220000,     0.200000,     0.160000,     0.050000,     0.300000     /
1070, 'ESST1A', 1,   1, 1, 0.000,  999.000,     -999.000,     1.000000,      10.0000,      0.00000,      0.00000,      178.900,  0.02000000,    999.000,     -999.000,      10.0000,     -10.0000,     0.050000,      0.00000,      1.00000,      0.00000,      0.00000 /
1072, 'GENSAL', 1,   7.00000,     0.300000E-01, 0.350000E-01,  3.00000,     1.00000,      1.20000,      0.80000,     0.220000,     0.200000,     0.160000,     0.050000,     0.300000     /
1072, 'ESST1A', 1,   1, 1, 0.000,  999.000,     -999.000,     1.000000,      10.0000,      0.00000,      0.00000,      178.900,  0.02000000,    999.000,     -999.000,      10.0000,     -10.0000,     0.050000,      0.00000,      1.00000,      0.00000,      0.00000 /
1073, 'GENSAL', 1,   7.00000,     0.300000E-01, 0.350000E-01,  3.00000,     1.00000,      1.20000,      0.80000,     0.220000,     0.200000,     0.160000,     0.050000,     0.300000     /
1073, 'ESST1A', 1,   1, 1, 0.000,  999.000,     -999.000,     1.000000,      10.0000,      0.00000,      0.00000,      178.900,  0.02000000,    999.000,     -999.000,      10.0000,     -10.0000,     0.050000,      0.00000,      1.00000,      0.00000,      0.00000 /
1074, 'GENSAL', 1,   7.00000,     0.300000E-01, 0.350000E-01,  3.00000,     1.00000,      1.20000,      0.80000,     0.220000,     0.200000,     0.160000,     0.050000,     0.300000     /
1074, 'ESST1A', 1,   1, 1, 0.000,  999.000,     -999.000,     1.000000,      10.0000,      0.00000,      0.00000,      178.900,  0.02000000,    999.000,     -999.000,      10.0000,     -10.0000,     0.050000,      0.00000,      1.00000,      0.00000,      0.00000 /
1075, 'GENSAL', 1,   7.00000,     0.300000E-01, 0.350000E-01,  3.00000,     1.00000,      1.20000,      0.80000,     0.220000,     0.200000,     0.160000,     0.050000,     0.300000     /
1075, 'ESST1A', 1,   1, 1, 0.000,  999.000,     -999.000,     1.000000,      10.0000,      0.00000,      0.00000,      178.900,  0.02000000,    999.000,     -999.000,      10.0000,     -10.0000,     0.050000,      0.00000,      1.00000,      0.00000,      0.00000 /
1076, 'GENSAL', 1,   7.00000,     0.300000E-01, 0.350000E-01,  3.00000,     1.00000,      1.20000,      0.80000,     0.220000,     0.200000,     0.160000,     0.050000,     0.300000     /
1076, 'ESST1A', 1,   1, 1, 0.000,  999.000,     -999.000,     1.000000,      10.0000,      0.00000,      0.00000,      178.900,  0.02000000,    999.000,     -999.000,      10.0000,     -10.0000,     0.050000,      0.00000,      1.00000,      0.00000,      0.00000 /
1077, 'GENSAL', 1,   7.00000,     0.300000E-01, 0.350000E-01,  3.00000,     1.00000,      1.20000,      0.80000,     0.220000,     0.200000,     0.160000,     0.050000,     0.300000     /
1077, 'ESST1A', 1,   1, 1, 0.000,  999.000,     -999.000,     1.000000,      10.0000,      0.00000,      0.00000,      178.900,  0.02000000,    999.000,     -999.000,      10.0000,     -10.0000,     0.050000,      0.00000,      1.00000,      0.00000,      0.00000 /
1078, 'GENSAL', 1,   7.00000,     0.300000E-01, 0.350000E-01,  3.00000,     1.00000,      1.20000,      0.80000,     0.220000,     0.200000,     0.160000,     0.050000,     0.300000     /
1078, 'ESST1A', 1,   1, 1, 0.000,  999.000,     -999.000,     1.000000,      10.0000,      0.00000,      0.00000,      178.900,  0.02000000,    999.000,     -999.000,      10.0000,     -10.0000,     0.050000,      0.00000,      1.00000,      0.00000,      0.00000 /
1079, 'GENSAL', 1,   7.00000,     0.300000E-01, 0.350000E-01,  3.00000,     1.00000,      1.20000,      0.80000,     0.220000,     0.200000,     0.160000,     0.050000,     0.300000     /
1079, 'ESST1A', 1,   1, 1, 0.000,  999.000,     -999.000,     1.000000,      10.0000,      0.00000,      0.00000,      178.900,  0.02000000,    999.000,     -999.000,      10.0000,     -10.0000,     0.050000,      0.00000,      1.00000,      0.00000,      0.00000 /
1080, 'GENSAL', 1,   7.00000,     0.300000E-01, 0.350000E-01,  3.00000,     1.00000,      1.20000,      0.80000,     0.220000,     0.200000,     0.160000,     0.050000,     0.300000     /
1080, 'ESST1A', 1,   1, 1, 0.000,  999.000,     -999.000,     1.000000,      10.0000,      0.00000,      0.00000,      178.900,  0.02000000,    999.000,     -999.000,      10.0000,     -10.0000,     0.050000,      0.00000,      1.00000,      0.00000,      0.00000 /
1081, 'GENSAL', 1,   7.00000,     0.300000E-01, 0.350000E-01,  3.00000,     1.00000,      1.20000,      0.80000,     0.220000,     0.200000,     0.160000,     0.050000,     0.300000     /
1081, 'ESST1A', 1,   1, 1, 0.000,  999.000,     -999.000,     1.000000,      10.0000,      0.00000,      0.00000,      178.900,  0.02000000,    999.000,     -999.000,      10.0000,     -10.0000,     0.050000,      0.00000,      1.00000,      0.00000,      0.00000 /
1082, 'GENSAL', 1,   7.00000,     0.300000E-01, 0.350000E-01,  3.00000,     1.00000,      1.20000,      0.80000,     0.220000,     0.200000,     0.160000,     0.050000,     0.300000     /
1082, 'ESST1A', 1,   1, 1, 0.000,  999.000,     -999.000,     1.000000,      10.0000,      0.00000,      0.00000,      178.900,  0.02000000,    999.000,     -999.000,      10.0000,     -10.0000,     0.050000,      0.00000,      1.00000,      0.00000,      0.00000 /
1084, 'GENSAL', 1,   7.00000,     0.300000E-01, 0.350000E-01,  3.00000,     1.00000,      1.20000,      0.80000,     0.220000,     0.200000,     0.160000,     0.050000,     0.300000     /
1084, 'ESST1A', 1,   1, 1, 0.000,  999.000,     -999.000,     1.000000,      10.0000,      0.00000,      0.00000,      178.900,  0.02000000,    999.000,     -999.000,      10.0000,     -10.0000,     0.050000,      0.00000,      1.00000,      0.00000,      0.00000 /
1088, 'GENSAL', 1,   7.00000,     0.300000E-01, 0.350000E-01,  3.00000,     1.00000,      1.20000,      0.80000,     0.220000,     0.200000,     0.160000,     0.050000,     0.300000     /
1088, 'ESST1A', 1,   1, 1, 0.000,  999.000,     -999.000,     1.000000,      10.0000,      0.00000,      0.00000,      178.900,  0.02000000,    999.000,     -999.000,      10.0000,     -10.0000,     0.050000,      0.00000,      1.00000,      0.00000,      0.00000 /
1090, 'GENSAL', 1,   7.00000,     0.300000E-01, 0.350000E-01,  3.00000,     1.00000,      1.20000,      0.80000,     0.220000,     0.200000,     0.160000,     0.050000,     0.300000     /
1090, 'ESST1A', 1,   1, 1, 0.000,  999.000,     -999.000,     1.000000,      10.0000,      0.00000,      0.00000,      178.900,  0.02000000,    999.000,     -999.000,      10.0000,     -10.0000,     0.050000,      0.00000,      1.00000,      0.00000,      0.00000 /
2004, 'GENSAL', 1,   7.00000,     0.300000E-01, 0.350000E-01,  3.00000,     1.00000,      1.20000,      0.80000,     0.220000,     0.200000,     0.160000,     0.050000,     0.300000     /
2004, 'ESST1A', 1,   1, 1, 0.000,  999.000,     -999.000,     1.000000,      10.0000,      0.00000,      0.00000,      178.900,  0.02000000,    999.000,     -999.000,      10.0000,     -10.0000,     0.050000,      0.00000,      1.00000,      0.00000,      0.00000 /
2005, 'GENSAL', 1,   7.00000,     0.300000E-01, 0.350000E-01,  3.00000,     1.00000,      1.20000,      0.80000,     0.220000,     0.200000,     0.160000,     0.050000,     0.300000     /
2005, 'ESST1A', 1,   1, 1, 0.000,  999.000,     -999.000,     1.000000,      10.0000,      0.00000,      0.00000,      178.900,  0.02000000,    999.000,     -999.000,      10.0000,     -10.0000,     0.050000,      0.00000,      1.00000,      0.00000,      0.00000 /
2006, 'GENSAL', 1,   7.00000,     0.300000E-01, 0.350000E-01,  3.00000,     1.00000,      1.20000,      0.80000,     0.220000,     0.200000,     0.160000,     0.050000,     0.300000     /
2006, 'ESST1A', 1,   1, 1, 0.000,  999.000,     -999.000,     1.000000,      10.0000,      0.00000,      0.00000,      178.900,  0.02000000,    999.000,     -999.000,      10.0000,     -10.0000,     0.050000,      0.00000,      1.00000,      0.00000,      0.00000 /
2013, 'GENSAL', 1,   7.00000,     0.300000E-01, 0.350000E-01,  3.00000,     1.00000,      1.20000,      0.80000,     0.220000,     0.200000,     0.160000,     0.050000,     0.300000     /
2013, 'ESST1A', 1,   1, 1, 0.000,  999.000,     -999.000,     1.000000,      10.0000,      0.00000,      0.00000,      178.900,  0.02000000,    999.000,     -999.000,      10.0000,     -10.0000,     0.050000,      0.00000,      1.00000,      0.00000,      0.00000 /
2019, 'GENSAL', 1,   7.00000,     0.300000E-01, 0.350000E-01,  3.00000,     1.00000,      1.20000,      0.80000,     0.220000,     0.200000,     0.160000,     0.050000,     0.300000     /
2019, 'ESST1A', 1,   1, 1, 0.000,  999.000,     -999.000,     1.000000,      10.0000,      0.00000,      0.00000,      178.900,  0.02000000,    999.000,     -999.000,      10.0000,     -10.0000,     0.050000,      0.00000,      1.00000,      0.00000,      0.00000 /
2023, 'GENSAL', 1,   7.00000,     0.300000E-01, 0.350000E-01,  3.00000,     1.00000,      1.20000,      0.80000,     0.220000,     0.200000,     0.160000,     0.050000,     0.300000     /
2023, 'ESST1A', 1,   1, 1, 0.000,  999.000,     -999.000,     1.000000,      10.0000,      0.00000,      0.00000,      178.900,  0.02000000,    999.000,     -999.000,      10.0000,     -10.0000,     0.050000,      0.00000,      1.00000,      0.00000,      0.00000 /
2024, 'GENSAL', 1,   7.00000,     0.300000E-01, 0.350000E-01,  3.00000,     1.00000,      1.20000,      0.80000,     0.220000,     0.200000,     0.160000,     0.050000,     0.300000     /
2024, 'ESST1A', 1,   1, 1, 0.000,  999.000,     -999.000,     1.000000,      10.0000,      0.00000,      0.00000,      178.900,  0.02000000,    999.000,     -999.000,      10.0000,     -10.0000,     0.050000,      0.00000,      1.00000,      0.00000,      0.00000 /
2042, 'GENSAL', 1,   7.00000,     0.300000E-01, 0.350000E-01,  3.00000,     1.00000,      1.20000,      0.80000,     0.220000,     0.200000,     0.160000,     0.050000,     0.300000     /
2042, 'ESST1A', 1,   1, 1, 0.000,  999.000,     -999.000,     1.000000,      10.0000,      0.00000,      0.00000,      178.900,  0.02000000,    999.000,     -999.000,      10.0000,     -10.0000,     0.050000,      0.00000,      1.00000,      0.00000,      0.00000 /
2056, 'GENSAL', 1,   7.00000,     0.300000E-01, 0.350000E-01,  3.00000,     1.00000,      1.20000,      0.80000,     0.220000,     0.200000,     0.160000,     0.050000,     0.300000     /
2056, 'ESST1A', 1,   1, 1, 0.000,  999.000,     -999.000,     1.000000,      10.0000,      0.00000,      0.00000,      178.900,  0.02000000,    999.000,     -999.000,      10.0000,     -10.0000,     0.050000,      0.00000,      1.00000,      0.00000,      0.00000 /
2057, 'GENSAL', 1,   7.00000,     0.300000E-01, 0.350000E-01,  3.00000,     1.00000,      1.20000,      0.80000,     0.220000,     0.200000,     0.160000,     0.050000,     0.300000     /
2057, 'ESST1A', 1,   1, 1, 0.000,  999.000,     -999.000,     1.000000,      10.0000,      0.00000,      0.00000,      178.900,  0.02000000,    999.000,     -999.000,      10.0000,     -10.0000,     0.050000,      0.00000,      1.00000,      0.00000,      0.00000 /
2059, 'GENSAL', 1,   7.00000,     0.300000E-01, 0.350000E-01,  3.00000,     1.00000,      1.20000,      0.80000,     0.220000,     0.200000,     0.160000,     0.050000,     0.300000     /
2059, 'ESST1A', 1,   1, 1, 0.000,  999.000,     -999.000,     1.000000,      10.0000,      0.00000,      0.00000,      178.900,  0.02000000,    999.000,     -999.000,      10.0000,     -10.0000,     0.050000,      0.00000,      1.00000,      0.00000,      0.00000 /
2062, 'GENSAL', 1,   7.00000,     0.300000E-01, 0.350000E-01,  3.00000,     1.00000,      1.20000,      0.80000,     0.220000,     0.200000,     0.160000,     0.050000,     0.300000     /
2062, 'ESST1A', 1,   1, 1, 0.000,  999.000,     -999.000,     1.000000,      10.0000,      0.00000,      0.00000,      178.900,  0.02000000,    999.000,     -999.000,      10.0000,     -10.0000,     0.050000,      0.00000,      1.00000,      0.00000,      0.00000 /
2071, 'GENSAL', 1,   7.00000,     0.300000E-01, 0.350000E-01,  3.00000,     1.00000,      1.20000,      0.80000,     0.220000,     0.200000,     0.160000,     0.050000,     0.300000     /
2071, 'ESST1A', 1,   1, 1, 0.000,  999.000,     -999.000,     1.000000,      10.0000,      0.00000,      0.00000,      178.900,  0.02000000,    999.000,     -999.000,      10.0000,     -10.0000,     0.050000,      0.00000,      1.00000,      0.00000,      0.00000 /
2078, 'GENSAL', 1,   7.00000,     0.300000E-01, 0.350000E-01,  3.00000,     1.00000,      1.20000,      0.80000,     0.220000,     0.200000,     0.160000,     0.050000,     0.300000     /
2078, 'ESST1A', 1,   1, 1, 0.000,  999.000,     -999.000,     1.000000,      10.0000,      0.00000,      0.00000,      178.900,  0.02000000,    999.000,     -999.000,      10.0000,     -10.0000,     0.050000,      0.00000,      1.00000,      0.00000,      0.00000 /
2084, 'GENSAL', 1,   7.00000,     0.300000E-01, 0.350000E-01,  3.00000,     1.00000,      1.20000,      0.80000,     0.220000,     0.200000,     0.160000,     0.050000,     0.300000     /
2084, 'ESST1A', 1,   1, 1, 0.000,  999.000,     -999.000,     1.000000,      10.0000,      0.00000,      0.00000,      178.900,  0.02000000,    999.000,     -999.000,      10.0000,     -10.0000,     0.050000,      0.00000,      1.00000,      0.00000,      0.00000 /
2085, 'GENSAL', 1,   7.00000,     0.300000E-01, 0.350000E-01,  3.00000,     1.00000,      1.20000,      0.80000,     0.220000,     0.200000,     0.160000,     0.050000,     0.300000     /
2085, 'ESST1A', 1,   1, 1, 0.000,  999.000,     -999.000,     1.000000,      10.0000,      0.00000,      0.00000,      178.900,  0.02000000,    999.000,     -999.000,      10.0000,     -10.0000,     0.050000,      0.00000,      1.00000,      0.00000,      0.00000 /
2089, 'GENSAL', 1,   7.00000,     0.300000E-01, 0.350000E-01,  3.00000,     1.00000,      1.20000,      0.80000,     0.220000,     0.200000,     0.160000,     0.050000,     0.300000     /
2089, 'ESST1A', 1,   1, 1, 0.000,  999.000,     -999.000,     1.000000,      10.0000,      0.00000,      0.00000,      178.900,  0.02000000,    999.000,     -999.000,      10.0000,     -10.0000,     0.050000,      0.00000,      1.00000,      0.00000,      0.00000 /
2094, 'GENSAL', 1,   7.00000,     0.300000E-01, 0.350000E-01,  3.00000,     1.00000,      1.20000,      0.80000,     0.220000,     0.200000,     0.160000,     0.050000,     0.300000     /
2094, 'ESST1A', 1,   1, 1, 0.000,  999.000,     -999.000,     1.000000,      10.0000,      0.00000,      0.00000,      178.900,  0.02000000,    999.000,     -999.000,      10.0000,     -10.0000,     0.050000,      0.00000,      1.00000,      0.00000,      0.00000 /
2095, 'GENSAL', 1,   7.00000,     0.300000E-01, 0.350000E-01,  3.00000,     1.00000,      1.20000,      0.80000,     0.220000,     0.200000,     0.160000,     0.050000,     0.300000     /
2095, 'ESST1A', 1,   1, 1, 0.000,  999.000,     -999.000,     1.000000,      10.0000,      0.00000,      0.00000,      178.900,  0.02000000,    999.000,     -999.000,      10.0000,     -10.0000,     0.050000,      0.00000,      1.00000,      0.00000,      0.00000 /
2100, 'GENSAL', 1,   7.00000,     0.300000E-01, 0.350000E-01,  3.00000,     1.00000,      1.20000,      0.80000,     0.220000,     0.200000,     0.160000,     0.050000,     0.300000     /
2100, 'ESST1A', 1,   1, 1, 0.000,  999.000,     -999.000,     1.000000,      10.0000,      0.00000,      0.00000,      178.900,  0.02000000,    999.000,     -999.000,      10.0000,     -10.0000,     0.050000,      0.00000,      1.00000,      0.00000,      0.00000 /
2103, 'GENSAL', 1,   7.00000,     0.300000E-01, 0.350000E-01,  3.00000,     1.00000,      1.20000,      0.80000,     0.220000,     0.200000,     0.160000,     0.050000,     0.300000     /
2103, 'ESST1A', 1,   1, 1, 0.000,  999.000,     -999.000,     1.000000,      10.0000,      0.00000,      0.00000,      178.900,  0.02000000,    999.000,     -999.000,      10.0000,     -10.0000,     0.050000,      0.00000,      1.00000,      0.00000,      0.00000 /
2104, 'GENSAL', 1,   7.00000,     0.300000E-01, 0.350000E-01,  3.00000,     1.00000,      1.20000,      0.80000,     0.220000,     0.200000,     0.160000,     0.050000,     0.300000     /
2104, 'ESST1A', 1,   1, 1, 0.000,  999.000,     -999.000,     1.000000,      10.0000,      0.00000,      0.00000,      178.900,  0.02000000,    999.000,     -999.000,      10.0000,     -10.0000,     0.050000,      0.00000,      1.00000,      0.00000,      0.00000 /
2105, 'GENSAL', 1,   7.00000,     0.300000E-01, 0.350000E-01,  3.00000,     1.00000,      1.20000,      0.80000,     0.220000,     0.200000,     0.160000,     0.050000,     0.300000     /
2105, 'ESST1A', 1,   1, 1, 0.000,  999.000,     -999.000,     1.000000,      10.0000,      0.00000,      0.00000,      178.900,  0.02000000,    999.000,     -999.000,      10.0000,     -10.0000,     0.050000,      0.00000,      1.00000,      0.00000,      0.00000 /
2115, 'GENSAL', 1,   7.00000,     0.300000E-01, 0.350000E-01,  3.00000,     1.00000,      1.20000,      0.80000,     0.220000,     0.200000,     0.160000,     0.050000,     0.300000     /
2115, 'ESST1A', 1,   1, 1, 0.000,  999.000,     -999.000,     1.000000,      10.0000,      0.00000,      0.00000,      178.900,  0.02000000,    999.000,     -999.000,      10.0000,     -10.0000,     0.050000,      0.00000,      1.00000,      0.00000,      0.00000 /
2116, 'GENSAL', 1,   7.00000,     0.300000E-01, 0.350000E-01,  3.00000,     1.00000,      1.20000,      0.80000,     0.220000,     0.200000,     0.160000,     0.050000,     0.300000     /
2116, 'ESST1A', 1,   1, 1, 0.000,  999.000,     -999.000,     1.000000,      10.0000,      0.00000,      0.00000,      178.900,  0.02000000,    999.000,     -999.000,      10.0000,     -10.0000,     0.050000,      0.00000,      1.00000,      0.00000,      0.00000 /
2117, 'GENSAL', 1,   7.00000,     0.300000E-01, 0.350000E-01,  3.00000,     1.00000,      1.20000,      0.80000,     0.220000,     0.200000,     0.160000,     0.050000,     0.300000     /
2117, 'ESST1A', 1,   1, 1, 0.000,  999.000,     -999.000,     1.000000,      10.0000,      0.00000,      0.00000,      178.900,  0.02000000,    999.000,     -999.000,      10.0000,     -10.0000,     0.050000,      0.00000,      1.00000,      0.00000,      0.00000 /
2118, 'GENSAL', 1,   7.00000,     0.300000E-01, 0.350000E-01,  3.00000,     1.00000,      1.20000,      0.80000,     0.220000,     0.200000,     0.160000,     0.050000,     0.300000     /
2118, 'ESST1A', 1,   1, 1, 0.000,  999.000,     -999.000,     1.000000,      10.0000,      0.00000,      0.00000,      178.900,  0.02000000,    999.000,     -999.000,      10.0000,     -10.0000,     0.050000,      0.00000,      1.00000,      0.00000,      0.00000 /
2119, 'GENSAL', 1,   7.00000,     0.300000E-01, 0.350000E-01,  3.00000,     1.00000,      1.20000,      0.80000,     0.220000,     0.200000,     0.160000,     0.050000,     0.300000     /
2119, 'ESST1A', 1,   1, 1, 0.000,  999.000,     -999.000,     1.000000,      10.0000,      0.00000,      0.00000,      178.900,  0.02000000,    999.000,     -999.000,      10.0000,     -10.0000,     0.050000,      0.00000,      1.00000,      0.00000,      0.00000 /
2120, 'GENSAL', 1,   7.00000,     0.300000E-01, 0.350000E-01,  3.00000,     1.00000,      1.20000,      0.80000,     0.220000,     0.200000,     0.160000,     0.050000,     0.300000     /
2120, 'ESST1A', 1,   1, 1, 0.000,  999.000,     -999.000,     1.000000,      10.0000,      0.00000,      0.00000,      178.900,  0.02000000,    999.000,     -999.000,      10.0000,     -10.0000,     0.050000,      0.00000,      1.00000,      0.00000,      0.00000 /