
30, 'GENSAL', 1,   7.00000,     0.300000E-01, 0.350000E-01,  3.00000,     1.00000,      1.20000,      0.80000,     0.220000,     0.200000,     0.160000,     0.050000,     0.300000     /
31, 'GENSAL', 1,   7.00000,     0.300000E-01, 0.350000E-01,  3.00000,     1.00000,      1.20000,      0.80000,     0.220000,     0.200000,     0.160000,     0.050000,     0.300000     /
32, 'GENSAL', 1,   7.00000,     0.300000E-01, 0.350000E-01,  3.00000,     1.00000,      1.20000,      0.80000,     0.220000,     0.200000,     0.160000,     0.050000,     0.300000     /
33, 'GENSAL', 1,   7.00000,     0.300000E-01, 0.350000E-01,  3.00000,     1.00000,      1.20000,      0.80000,     0.220000,     0.200000,     0.160000,     0.050000,     0.300000     /
34, 'GENSAL', 1,   7.00000,     0.300000E-01, 0.350000E-01,  3.00000,     1.00000,      1.20000,      0.80000,     0.220000,     0.200000,     0.160000,     0.050000,     0.300000     /
35, 'GENSAL', 1,   7.00000,     0.300000E-01, 0.350000E-01,  3.00000,     1.00000,      1.20000,      0.80000,     0.220000,     0.200000,     0.160000,     0.050000,     0.300000     /
36, 'GENSAL', 1,   7.00000,     0.300000E-01, 0.350000E-01,  3.00000,     1.00000,      1.20000,      0.80000,     0.220000,     0.200000,     0.160000,     0.050000,     0.300000     /
37, 'GENSAL', 1,   7.00000,     0.300000E-01, 0.350000E-01,  3.00000,     1.00000,      1.20000,      0.80000,     0.220000,     0.200000,     0.160000,     0.050000,     0.300000     /
38, 'GENSAL', 1,   7.00000,     0.300000E-01, 0.350000E-01,  3.00000,     1.00000,      1.20000,      0.80000,     0.220000,     0.200000,     0.160000,     0.050000,     0.300000     /
30, 'GENSAL', 1,   7.00000,     0.300000E-01, 0.350000E-01,  3.00000,     1.00000,      1.20000,      0.80000,     0.220000,     0.200000,     0.160000,     0.050000,     0.300000     /
30, 'GENSAL', 1,   7.00000,     0.300000E-01, 0.350000E-01,  3.00000,     1.00000,      1.20000,      0.80000,     0.220000,     0.200000,     0.160000,     0.050000,     0.300000     /


30, 'EXDC1' ,1,0.0,40.0,0.1,0.0,0.0,1.0,-1.0,0.1,0.5,0.05,0.7,0.0,2.8,0.08,3.7,0.33 /
31, 'EXDC1' ,1,0.0,40.0,0.1,0.0,0.0,1.0,-1.0,0.1,0.5,0.05,0.7,0.0,2.8,0.08,3.7,0.33 /
32, 'EXDC1' ,1,0.0,40.0,0.1,0.0,0.0,1.0,-1.0,0.1,0.5,0.05,0.7,0.0,2.8,0.08,3.7,0.33 /
33, 'EXDC1' ,1,0.0,40.0,0.1,0.0,0.0,1.0,-1.0,0.1,0.5,0.05,0.7,0.0,2.8,0.08,3.7,0.33 /
34, 'EXDC1' ,1,0.0,40.0,0.1,0.0,0.0,1.0,-1.0,0.1,0.5,0.05,0.7,0.0,2.8,0.08,3.7,0.33 /
35, 'EXDC1' ,1,0.0,40.0,0.1,0.0,0.0,1.0,-1.0,0.1,0.5,0.05,0.7,0.0,2.8,0.08,3.7,0.33 /
36, 'EXDC1' ,1,0.0,40.0,0.1,0.0,0.0,1.0,-1.0,0.1,0.5,0.05,0.7,0.0,2.8,0.08,3.7,0.33 /
37, 'EXDC1' ,1,0.0,40.0,0.1,0.0,0.0,1.0,-1.0,0.1,0.5,0.05,0.7,0.0,2.8,0.08,3.7,0.33 /
38, 'EXDC1' ,1,0.0,40.0,0.1,0.0,0.0,1.0,-1.0,0.1,0.5,0.05,0.7,0.0,2.8,0.08,3.7,0.33 /

30, 'WSIEG1' ,1,0,0,25.0,0.0,0.0,0.1,1.0,-10.0,1.01,0.0,0.3,1.0,0.0,0.0,0.0,0.0,0.0,0.0,0.0,0.0,0.0,0.0,0.0,0.0,0.0,0.0,0.0,0.0,0.0,0.0,0.0,0.0,0.0,0.0,0.0,0 /
31, 'WSIEG1' ,1,0,0,25.0,0.0,0.0,0.1,1.0,-10.0,1.01,0.0,0.3,1.0,0.0,0.0,0.0,0.0,0.0,0.0,0.0,0.0,0.0,0.0,0.0,0.0,0.0,0.0,0.0,0.0,0.0,0.0,0.0,0.0,0.0,0.0,0.0,0 /
32, 'WSIEG1' ,1,0,0,25.0,0.0,0.0,0.1,1.0,-10.0,1.01,0.0,0.3,1.0,0.0,0.0,0.0,0.0,0.0,0.0,0.0,0.0,0.0,0.0,0.0,0.0,0.0,0.0,0.0,0.0,0.0,0.0,0.0,0.0,0.0,0.0,0.0,0 /
33, 'WSIEG1' ,1,0,0,25.0,0.0,0.0,0.1,1.0,-10.0,1.01,0.0,0.3,1.0,0.0,0.0,0.0,0.0,0.0,0.0,0.0,0.0,0.0,0.0,0.0,0.0,0.0,0.0,0.0,0.0,0.0,0.0,0.0,0.0,0.0,0.0,0.0,0 /
34, 'WSIEG1' ,1,0,0,25.0,0.0,0.0,0.1,1.0,-10.0,1.01,0.0,0.3,1.0,0.0,0.0,0.0,0.0,0.0,0.0,0.0,0.0,0.0,0.0,0.0,0.0,0.0,0.0,0.0,0.0,0.0,0.0,0.0,0.0,0.0,0.0,0.0,0 /
35, 'WSIEG1' ,1,0,0,25.0,0.0,0.0,0.1,1.0,-10.0,1.01,0.0,0.3,1.0,0.0,0.0,0.0,0.0,0.0,0.0,0.0,0.0,0.0,0.0,0.0,0.0,0.0,0.0,0.0,0.0,0.0,0.0,0.0,0.0,0.0,0.0,0.0,0 /
36, 'WSIEG1' ,1,0,0,25.0,0.0,0.0,0.1,1.0,-10.0,1.01,0.0,0.3,1.0,0.0,0.0,0.0,0.0,0.0,0.0,0.0,0.0,0.0,0.0,0.0,0.0,0.0,0.0,0.0,0.0,0.0,0.0,0.0,0.0,0.0,0.0,0.0,0 /
37, 'WSIEG1' ,1,0,0,25.0,0.0,0.0,0.1,1.0,-10.0,1.01,0.0,0.3,1.0,0.0,0.0,0.0,0.0,0.0,0.0,0.0,0.0,0.0,0.0,0.0,0.0,0.0,0.0,0.0,0.0,0.0,0.0,0.0,0.0,0.0,0.0,0.0,0 /
38, 'WSIEG1' ,1,0,0,25.0,0.0,0.0,0.1,1.0,-10.0,1.01,0.0,0.3,1.0,0.0,0.0,0.0,0.0,0.0,0.0,0.0,0.0,0.0,0.0,0.0,0.0,0.0,0.0,0.0,0.0,0.0,0.0,0.0,0.0,0.0,0.0,0.0,0 /

               
39, 'GENCLS', 1,  500.00,          10.000/ 

504, 'USRLOD', 1, 'ACMTBLU1', 12, 1, 0, 35, 9, 29, 16, 0.033,   0.40,  0.02,0.05,   0,   0.98,   0.5,   0.124,   0.114, 0.3,  0.0, 1.0, 6.0, 2.0, 12.0, 3.2, 11.0,  2.5, 0.86, 0.20, 0.95, 1.0,    -3.3,    0.5,   0.4,   0.65, 0.55,   15,  1.0,  2.9, 0.0,  0.5,  0.02,  0.90,  5.0 /
507, 'USRLOD', 1, 'ACMTBLU1', 12, 1, 0, 35, 9, 29, 16, 0.033,   0.40,  0.02,0.05,   0,   0.98,   0.5,   0.124,   0.114, 0.3,  0.0, 1.0, 6.0, 2.0, 12.0, 3.2, 11.0,  2.5, 0.86, 0.20, 0.95, 1.0,    -3.3,    0.5,   0.4,   0.65, 0.55,   15,  1.0,  2.9, 0.0,  0.5,  0.02,  0.90,  5.0 /
518, 'USRLOD', 1, 'ACMTBLU1', 12, 1, 0, 35, 9, 29, 16, 0.033,   0.40,  0.02,0.05,   0,   0.98,   0.5,   0.124,   0.114, 0.3,  0.0, 1.0, 6.0, 2.0, 12.0, 3.2, 11.0,  2.5, 0.86, 0.20, 0.95, 1.0,    -3.3,    0.5,   0.4,   0.65, 0.55,   15,  1.0,  2.9, 0.0,  0.5,  0.02,  0.90,  5.0 /



