10000  , 'GENROU'  , 1  , 4.7500  , 0.60000E-01  , 1.5000  , 0.21000  , 
5.0160  , 0.0000  , 1.2500  , 1.2200  , 0.23200  , 
0.71500  , 0.12000  , 0.11900  , 0.27900  , 0.88600 /
10000  , 'EXDC1'  , 1,0.0,40.0,0.1,0.0,0.0,1.0,-1.0,0.1,0.5,0.05,0.7,0.0,2.8,0.08,3.7,0.33 /
10001  , 'GENROU'  , 1  , 4.7500  , 0.60000E-01  , 1.5000  , 0.21000  , 
5.0160  , 2.0000  , 1.2500  , 1.2200  , 0.23200  , 
0.71500  , 0.12000  , 0.11900  , 0.27900  , 0.88600 /
10001  , 'EXDC1'  , 1,0.0,40.0,0.1,0.0,0.0,1.0,-1.0,0.1,0.5,0.05,0.7,0.0,2.8,0.08,3.7,0.33 /
10002  , 'GENROU'  , 1  , 4.7500  , 0.60000E-01  , 1.5000  , 0.21000  , 
5.0160  , 0.0000  , 1.2500  , 1.2200  , 0.23200  , 
0.71500  , 0.12000  , 0.11900  , 0.27900  , 0.88600 /
10002  , 'EXDC1'  , 1,0.0,40.0,0.1,0.0,0.0,1.0,-1.0,0.1,0.5,0.05,0.7,0.0,2.8,0.08,3.7,0.33 /
10003  , 'GENROU'  , 1  , 4.7500  , 0.60000E-01  , 1.5000  , 0.21000  , 
5.0160  , 0.0000  , 1.2500  , 1.2200  , 0.23200  , 
0.71500  , 0.12000  , 0.11900  , 0.27900  , 0.88600 /
10003  , 'EXDC1'  , 1,0.0,40.0,0.1,0.0,0.0,1.0,-1.0,0.1,0.5,0.05,0.7,0.0,2.8,0.08,3.7,0.33 /
10004  , 'GENROU'  , 1  , 4.7500  , 0.60000E-01  , 1.5000  , 0.21000  , 
5.0160  , 0.0000  , 1.2500  , 1.2200  , 0.23200  , 
0.71500  , 0.12000  , 0.11900  , 0.27900  , 0.88600 /
10004  , 'TGOV1'  , 1  , 0.50000E-01  , 0.20000  , 1.5000  , -1.5000  , 
2.6160  , 8.7200  , 0.0000 /
10005  , 'GENROU'  , 1  , 5.6900  , 0.60000E-01  , 1.5000  , 0.14400  , 
2.6419  , 2.0000  , 2.1830  , 2.1570  , 0.41300  , 
1.2850  , 0.33900  , 0.24600  , 0.13400  , 0.61700 /
10005  , 'EXDC1'  , 1,0.0,40.0,0.1,0.0,0.0,1.0,-1.0,0.1,0.5,0.05,0.7,0.0,2.8,0.08,3.7,0.33 /
10005  , 'TGOV1'  , 1  , 0.50000E-01  , 0.20000  , 1.5000  , -1.5000  , 
2.6160  , 8.7200  , 0.0000 /
10006  , 'GENROU'  , 1  , 4.8000  , 0.60000E-01  , 0.50000  , 0.60000E-01  , 
4.1296  , 2.0000  , 1.7000  , 1.6200  , 0.25600  , 
0.24500  , 0.18500  , 0.15500  , 0.12500  , 0.45000 /
10006  , 'EXDC1'  , 1,0.0,40.0,0.1,0.0,0.0,1.0,-1.0,0.1,0.5,0.05,0.7,0.0,2.8,0.08,3.7,0.33 /
10006  , 'TGOV1'  , 1  , 0.50000E-01  , 0.20000  , 1.5000  , -1.5000  , 
2.6160  , 8.7200  , 0.0000 /
10007  , 'GENROU'  , 1  , 0.84180  , 0.60000E-01  , 0.86760  , 0.60000E-01  , 
3.7040  , 2.0000  , 1.7668  , 1.7469  , 0.27380  , 
1.0104  , 0.22840  , 0.18340  , 0.26320  , 0.53510 /
10007  , 'EXDC1'  , 1,0.0,40.0,0.1,0.0,0.0,1.0,-1.0,0.1,0.5,0.05,0.7,0.0,2.8,0.08,3.7,0.33 /
10007  , 'TGOV1'  , 1  , 0.50000E-01  , 0.20000  , 1.5000  , -1.5000  , 
2.6160  , 8.7200  , 0.0000 /
10008  , 'GENROU'  , 1  , 8.9700  , 0.60000E-01  , 0.50000  , 0.70000E-01  , 
4.7680  , 2.0000  , 1.2200  , 1.1600  , 0.17400  , 
0.25000  , 0.13400  , 0.78000E-02  , 0.10260  , 0.43200 /
10008  , 'EXDC1'  , 1,0.0,40.0,0.1,0.0,0.0,1.0,-1.0,0.1,0.5,0.05,0.7,0.0,2.8,0.08,3.7,0.33 /
10008  , 'TGOV1'  , 1  , 0.50000E-01  , 0.20000  , 1.5000  , -1.5000  , 
2.6160  , 8.7200  , 0.0000 /
10009  , 'GENROU'  , 1  , 4.8000  , 0.60000E-01  , 0.50000  , 0.60000E-01  , 
4.1296  , 2.0000  , 1.7000  , 1.6200  , 0.25600  , 
0.24500  , 0.18500  , 0.15500  , 0.12500  , 0.45000 /
10009  , 'EXDC1'  , 1,0.0,40.0,0.1,0.0,0.0,1.0,-1.0,0.1,0.5,0.05,0.7,0.0,2.8,0.08,3.7,0.33 /
10009  , 'TGOV1'  , 1  , 0.50000E-01  , 0.20000  , 1.5000  , -1.5000  , 
2.6160  , 8.7200  , 0.0000 /
10010  , 'GENROU'  , 1  , 6.0000  , 0.60000E-01  , 0.90000  , 0.60000E-01  , 
2.4862  , 2.0000  , 2.0400  , 1.9600  , 0.26600  , 
0.26200  , 0.19300  , 0.15400  , 0.34000  , 1.1200 /
10011  , 'GENROU'  , 1  , 0.84180  , 0.60000E-01  , 0.86760  , 0.60000E-01  , 
3.7040  , 2.0000  , 1.7668  , 1.7469  , 0.27380  , 
1.0104  , 0.22840  , 0.18340  , 0.26320  , 0.53510 /
10011  , 'EXDC1'  , 1,0.0,40.0,0.1,0.0,0.0,1.0,-1.0,0.1,0.5,0.05,0.7,0.0,2.8,0.08,3.7,0.33 /
10011  , 'TGOV1'  , 1  , 0.50000E-01  , 0.20000  , 1.5000  , -1.5000  , 
2.6160  , 8.7200  , 0.0000 /
10012  , 'GENROU'  , 1  , 4.7500  , 0.60000E-01  , 1.5000  , 0.21000  , 
5.0160  , 0.0000  , 1.2500  , 1.2200  , 0.23200  , 
0.71500  , 0.12000  , 0.11900  , 0.27900  , 0.88600 /
10012  , 'TGOV1'  , 1  , 0.50000E-01  , 0.20000  , 1.5000  , -1.5000  , 
2.6160  , 8.7200  , 0.0000 /
10013  , 'GENROU'  , 1  , 6.0000  , 0.60000E-01  , 0.90000  , 0.60000E-01  , 
2.4862  , 2.0000  , 2.0400  , 1.9600  , 0.26600  , 
0.26200  , 0.19300  , 0.15400  , 0.34000  , 1.1200 /
10014  , 'GENROU'  , 1  , 0.84180  , 0.60000E-01  , 0.86760  , 0.60000E-01  , 
3.7040  , 2.0000  , 1.7668  , 1.7469  , 0.27380  , 
1.0104  , 0.22840  , 0.18340  , 0.26320  , 0.53510 /
10014  , 'EXDC1'  , 1,0.0,40.0,0.1,0.0,0.0,1.0,-1.0,0.1,0.5,0.05,0.7,0.0,2.8,0.08,3.7,0.33 /
10014  , 'TGOV1'  , 1  , 0.50000E-01  , 0.20000  , 1.5000  , -1.5000  , 
2.6160  , 8.7200  , 0.0000 /
10015  , 'GENROU'  , 1  , 6.0000  , 0.60000E-01  , 0.90000  , 0.60000E-01  , 
2.4862  , 2.0000  , 2.0400  , 1.9600  , 0.26600  , 
0.26200  , 0.19300  , 0.15400  , 0.34000  , 1.1200 /
10015  , 'EXDC1'  , 1,0.0,40.0,0.1,0.0,0.0,1.0,-1.0,0.1,0.5,0.05,0.7,0.0,2.8,0.08,3.7,0.33 /
10015  , 'TGOV1'  , 1  , 0.50000E-01  , 0.20000  , 1.5000  , -1.5000  , 
2.6160  , 8.7200  , 0.0000 /
10016  , 'GENROU'  , 1  , 8.9700  , 0.60000E-01  , 0.50000  , 0.70000E-01  , 
4.7680  , 2.0000  , 1.2200  , 1.1600  , 0.17400  , 
0.25000  , 0.13400  , 0.78000E-02  , 0.10260  , 0.43200 /
10016  , 'EXDC1'  , 1,0.0,40.0,0.1,0.0,0.0,1.0,-1.0,0.1,0.5,0.05,0.7,0.0,2.8,0.08,3.7,0.33 /
10016  , 'TGOV1'  , 1  , 0.50000E-01  , 0.20000  , 1.5000  , -1.5000  , 
2.6160  , 8.7200  , 0.0000 /
10017  , 'GENROU'  , 1  , 0.84180  , 0.60000E-01  , 0.86760  , 0.60000E-01  , 
3.7040  , 2.0000  , 1.7668  , 1.7469  , 0.27380  , 
1.0104  , 0.22840  , 0.18340  , 0.26320  , 0.53510 /
10017  , 'EXDC1'  , 1,0.0,40.0,0.1,0.0,0.0,1.0,-1.0,0.1,0.5,0.05,0.7,0.0,2.8,0.08,3.7,0.33 /
10017  , 'TGOV1'  , 1  , 0.50000E-01  , 0.20000  , 1.5000  , -1.5000  , 
2.6160  , 8.7200  , 0.0000 /
10018  , 'GENROU'  , 1  , 4.8000  , 0.60000E-01  , 0.50000  , 0.60000E-01  , 
4.1296  , 2.0000  , 1.7000  , 1.6200  , 0.25600  , 
0.24500  , 0.18500  , 0.15500  , 0.12500  , 0.45000 /
10018  , 'EXDC1'  , 1,0.0,40.0,0.1,0.0,0.0,1.0,-1.0,0.1,0.5,0.05,0.7,0.0,2.8,0.08,3.7,0.33 /
10018  , 'TGOV1'  , 1  , 0.50000E-01  , 0.20000  , 1.5000  , -1.5000  , 
2.6160  , 8.7200  , 0.0000 /
10019  , 'GENROU'  , 1  , 5.6900  , 0.60000E-01  , 1.5000  , 0.14400  , 
2.6419  , 2.0000  , 2.1830  , 2.1570  , 0.41300  , 
1.2850  , 0.33900  , 0.24600  , 0.13400  , 0.61700 /
10019  , 'EXDC1'  , 1,0.0,40.0,0.1,0.0,0.0,1.0,-1.0,0.1,0.5,0.05,0.7,0.0,2.8,0.08,3.7,0.33 /
10019  , 'TGOV1'  , 1  , 0.50000E-01  , 0.20000  , 1.5000  , -1.5000  , 
2.6160  , 8.7200  , 0.0000 /
10020  , 'GENROU'  , 1  , 0.84180  , 0.60000E-01  , 0.86760  , 0.60000E-01  , 
3.7040  , 2.0000  , 1.7668  , 1.7469  , 0.27380  , 
1.0104  , 0.22840  , 0.18340  , 0.26320  , 0.53510 /
10020  , 'EXDC1'  , 1,0.0,40.0,0.1,0.0,0.0,1.0,-1.0,0.1,0.5,0.05,0.7,0.0,2.8,0.08,3.7,0.33 /
10020  , 'TGOV1'  , 1  , 0.50000E-01  , 0.20000  , 1.5000  , -1.5000  , 
2.6160  , 8.7200  , 0.0000 /
10021  , 'GENROU'  , 1  , 4.7500  , 0.60000E-01  , 1.5000  , 0.21000  , 
5.0160  , 0.0000  , 1.2500  , 1.2200  , 0.23200  , 
0.71500  , 0.12000  , 0.11900  , 0.27900  , 0.88600 /
10021  , 'EXDC1'  , 1,0.0,40.0,0.1,0.0,0.0,1.0,-1.0,0.1,0.5,0.05,0.7,0.0,2.8,0.08,3.7,0.33 /
10021  , 'TGOV1'  , 1  , 0.50000E-01  , 0.20000  , 1.5000  , -1.5000  , 
2.6160  , 8.7200  , 0.0000 /
10022  , 'GENROU'  , 1  , 0.84180  , 0.60000E-01  , 0.86760  , 0.60000E-01  , 
3.7040  , 2.0000  , 1.7668  , 1.7469  , 0.27380  , 
1.0104  , 0.22840  , 0.18340  , 0.26320  , 0.53510 /
10022  , 'EXDC1'  , 1,0.0,40.0,0.1,0.0,0.0,1.0,-1.0,0.1,0.5,0.05,0.7,0.0,2.8,0.08,3.7,0.33 /
10022  , 'TGOV1'  , 1  , 0.50000E-01  , 0.20000  , 1.5000  , -1.5000  , 
2.6160  , 8.7200  , 0.0000 /
10023  , 'GENROU'  , 1  , 4.7500  , 0.60000E-01  , 1.5000  , 0.21000  , 
5.0160  , 0.0000  , 1.2500  , 1.2200  , 0.23200  , 
0.71500  , 0.12000  , 0.11900  , 0.27900  , 0.88600 /
10024  , 'GENROU'  , 1  , 0.84180  , 0.60000E-01  , 0.86760  , 0.60000E-01  , 
3.7040  , 2.0000  , 1.7668  , 1.7469  , 0.27380  , 
1.0104  , 0.22840  , 0.18340  , 0.26320  , 0.53510 /
10024  , 'EXDC1'  , 1,0.0,40.0,0.1,0.0,0.0,1.0,-1.0,0.1,0.5,0.05,0.7,0.0,2.8,0.08,3.7,0.33 /
10024  , 'TGOV1'  , 1  , 0.50000E-01  , 0.20000  , 1.5000  , -1.5000  , 
2.6160  , 8.7200  , 0.0000 /
10025  , 'GENROU'  , 1  , 4.8000  , 0.60000E-01  , 0.50000  , 0.60000E-01  , 
4.1296  , 2.0000  , 1.7000  , 1.6200  , 0.25600  , 
0.24500  , 0.18500  , 0.15500  , 0.12500  , 0.45000 /
10025  , 'EXDC1'  , 1,0.0,40.0,0.1,0.0,0.0,1.0,-1.0,0.1,0.5,0.05,0.7,0.0,2.8,0.08,3.7,0.33 /
10025  , 'TGOV1'  , 1  , 0.50000E-01  , 0.20000  , 1.5000  , -1.5000  , 
2.6160  , 8.7200  , 0.0000 /
10026  , 'GENROU'  , 1  , 0.84180  , 0.60000E-01  , 0.86760  , 0.60000E-01  , 
3.7040  , 2.0000  , 1.7668  , 1.7469  , 0.27380  , 
1.0104  , 0.22840  , 0.18340  , 0.26320  , 0.53510 /
10026  , 'EXDC1'  , 1,0.0,40.0,0.1,0.0,0.0,1.0,-1.0,0.1,0.5,0.05,0.7,0.0,2.8,0.08,3.7,0.33 /
10026  , 'TGOV1'  , 1  , 0.50000E-01  , 0.20000  , 1.5000  , -1.5000  , 
2.6160  , 8.7200  , 0.0000 /
10027  , 'GENROU'  , 1  , 6.0000  , 0.60000E-01  , 0.90000  , 0.60000E-01  , 
2.4862  , 2.0000  , 2.0400  , 1.9600  , 0.26600  , 
0.26200  , 0.19300  , 0.15400  , 0.34000  , 1.1200 /
10027  , 'EXDC1'  , 1,0.0,40.0,0.1,0.0,0.0,1.0,-1.0,0.1,0.5,0.05,0.7,0.0,2.8,0.08,3.7,0.33 /
10028  , 'GENROU'  , 1  , 6.0000  , 0.60000E-01  , 0.90000  , 0.60000E-01  , 
2.4862  , 2.0000  , 2.0400  , 1.9600  , 0.26600  , 
0.26200  , 0.19300  , 0.15400  , 0.34000  , 1.1200 /
10028  , 'EXDC1'  , 1,0.0,40.0,0.1,0.0,0.0,1.0,-1.0,0.1,0.5,0.05,0.7,0.0,2.8,0.08,3.7,0.33 /
10029  , 'GENROU'  , 1  , 5.6900  , 0.60000E-01  , 1.5000  , 0.14400  , 
2.6419  , 2.0000  , 2.1830  , 2.1570  , 0.41300  , 
1.2850  , 0.33900  , 0.24600  , 0.13400  , 0.61700 /
10029  , 'EXDC1'  , 1,0.0,40.0,0.1,0.0,0.0,1.0,-1.0,0.1,0.5,0.05,0.7,0.0,2.8,0.08,3.7,0.33 /
10029  , 'TGOV1'  , 1  , 0.50000E-01  , 0.20000  , 1.5000  , -1.5000  , 
2.6160  , 8.7200  , 0.0000 /
10030  , 'GENROU'  , 1  , 6.0000  , 0.60000E-01  , 0.90000  , 0.60000E-01  , 
2.4862  , 2.0000  , 2.0400  , 1.9600  , 0.26600  , 
0.26200  , 0.19300  , 0.15400  , 0.34000  , 1.1200 /
10031  , 'GENROU'  , 1  , 5.6900  , 0.60000E-01  , 1.5000  , 0.14400  , 
2.6419  , 2.0000  , 2.1830  , 2.1570  , 0.41300  , 
1.2850  , 0.33900  , 0.24600  , 0.13400  , 0.61700 /
10031  , 'EXDC1'  , 1,0.0,40.0,0.1,0.0,0.0,1.0,-1.0,0.1,0.5,0.05,0.7,0.0,2.8,0.08,3.7,0.33 /
10031  , 'TGOV1'  , 1  , 0.50000E-01  , 0.20000  , 1.5000  , -1.5000  , 
2.6160  , 8.7200  , 0.0000 /
10032  , 'GENROU'  , 1  , 3.8000  , 0.60000E-01  , 0.48000  , 0.60000E-01  , 
2.6312  , 2.0000  , 1.7000  , 1.6500  , 0.27000  , 
0.47000  , 0.20000  , 0.16000  , 0.90000E-01  , 0.40000 /
10032  , 'EXDC1'  , 1,0.0,40.0,0.1,0.0,0.0,1.0,-1.0,0.1,0.5,0.05,0.7,0.0,2.8,0.08,3.7,0.33 /
10032  , 'TGOV1'  , 1  , 0.50000E-01  , 0.20000  , 1.5000  , -1.5000  , 
2.6160  , 8.7200  , 0.0000 /
10033  , 'GENROU'  , 1  , 4.8000  , 0.60000E-01  , 0.50000  , 0.60000E-01  , 
4.1296  , 2.0000  , 1.7000  , 1.6200  , 0.25600  , 
0.24500  , 0.18500  , 0.15500  , 0.12500  , 0.45000 /
10033  , 'EXDC1'  , 1,0.0,40.0,0.1,0.0,0.0,1.0,-1.0,0.1,0.5,0.05,0.7,0.0,2.8,0.08,3.7,0.33 /
10033  , 'TGOV1'  , 1  , 0.50000E-01  , 0.20000  , 1.5000  , -1.5000  , 
2.6160  , 8.7200  , 0.0000 /
10034  , 'GENROU'  , 1  , 5.6900  , 0.60000E-01  , 1.5000  , 0.14400  , 
2.6419  , 2.0000  , 2.1830  , 2.1570  , 0.41300  , 
1.2850  , 0.33900  , 0.24600  , 0.13400  , 0.61700 /
10034  , 'EXDC1'  , 1,0.0,40.0,0.1,0.0,0.0,1.0,-1.0,0.1,0.5,0.05,0.7,0.0,2.8,0.08,3.7,0.33 /
10034  , 'TGOV1'  , 1  , 0.50000E-01  , 0.20000  , 1.5000  , -1.5000  , 
2.6160  , 8.7200  , 0.0000 /
10035  , 'GENROU'  , 1  , 0.84180  , 0.60000E-01  , 0.86760  , 0.60000E-01  , 
3.7040  , 2.0000  , 1.7668  , 1.7469  , 0.27380  , 
1.0104  , 0.22840  , 0.18340  , 0.26320  , 0.53510 /
10035  , 'EXDC1'  , 1,0.0,40.0,0.1,0.0,0.0,1.0,-1.0,0.1,0.5,0.05,0.7,0.0,2.8,0.08,3.7,0.33 /
10035  , 'TGOV1'  , 1  , 0.50000E-01  , 0.20000  , 1.5000  , -1.5000  , 
2.6160  , 8.7200  , 0.0000 /
10036  , 'GENROU'  , 1  , 3.8000  , 0.60000E-01  , 0.48000  , 0.60000E-01  , 
2.6312  , 2.0000  , 1.7000  , 1.6500  , 0.27000  , 
0.47000  , 0.20000  , 0.16000  , 0.90000E-01  , 0.40000 /
10036  , 'EXDC1'  , 1,0.0,40.0,0.1,0.0,0.0,1.0,-1.0,0.1,0.5,0.05,0.7,0.0,2.8,0.08,3.7,0.33 /
10036  , 'TGOV1'  , 1  , 0.50000E-01  , 0.20000  , 1.5000  , -1.5000  , 
2.6160  , 8.7200  , 0.0000 /
10037  , 'GENROU'  , 1  , 5.6900  , 0.60000E-01  , 1.5000  , 0.14400  , 
2.6419  , 2.0000  , 2.1830  , 2.1570  , 0.41300  , 
1.2850  , 0.33900  , 0.24600  , 0.13400  , 0.61700 /
10037  , 'EXDC1'  , 1,0.0,40.0,0.1,0.0,0.0,1.0,-1.0,0.1,0.5,0.05,0.7,0.0,2.8,0.08,3.7,0.33 /
10037  , 'TGOV1'  , 1  , 0.50000E-01  , 0.20000  , 1.5000  , -1.5000  , 
2.6160  , 8.7200  , 0.0000 /
10038  , 'GENROU'  , 1  , 3.8000  , 0.60000E-01  , 0.48000  , 0.60000E-01  , 
2.6312  , 2.0000  , 1.7000  , 1.6500  , 0.27000  , 
0.47000  , 0.20000  , 0.16000  , 0.90000E-01  , 0.40000 /
10038  , 'EXDC1'  , 1,0.0,40.0,0.1,0.0,0.0,1.0,-1.0,0.1,0.5,0.05,0.7,0.0,2.8,0.08,3.7,0.33 /
10038  , 'TGOV1'  , 1  , 0.50000E-01  , 0.20000  , 1.5000  , -1.5000  , 
2.6160  , 8.7200  , 0.0000 /
10039  , 'GENROU'  , 1  , 6.0000  , 0.60000E-01  , 0.90000  , 0.60000E-01  , 
2.4862  , 2.0000  , 2.0400  , 1.9600  , 0.26600  , 
0.26200  , 0.19300  , 0.15400  , 0.34000  , 1.1200 /
10039  , 'EXDC1'  , 1,0.0,40.0,0.1,0.0,0.0,1.0,-1.0,0.1,0.5,0.05,0.7,0.0,2.8,0.08,3.7,0.33 /
10039  , 'TGOV1'  , 1  , 0.50000E-01  , 0.20000  , 1.5000  , -1.5000  , 
2.6160  , 8.7200  , 0.0000 /
10040  , 'GENROU'  , 1  , 0.84180  , 0.60000E-01  , 0.86760  , 0.60000E-01  , 
3.7040  , 2.0000  , 1.7668  , 1.7469  , 0.27380  , 
1.0104  , 0.22840  , 0.18340  , 0.26320  , 0.53510 /
10040  , 'EXDC1'  , 1,0.0,40.0,0.1,0.0,0.0,1.0,-1.0,0.1,0.5,0.05,0.7,0.0,2.8,0.08,3.7,0.33 /
10040  , 'TGOV1'  , 1  , 0.50000E-01  , 0.20000  , 1.5000  , -1.5000  , 
2.6160  , 8.7200  , 0.0000 /
10041  , 'GENROU'  , 1  , 6.0000  , 0.60000E-01  , 0.90000  , 0.60000E-01  , 
2.4862  , 2.0000  , 2.0400  , 1.9600  , 0.26600  , 
0.26200  , 0.19300  , 0.15400  , 0.34000  , 1.1200 /
10041  , 'EXDC1'  , 1,0.0,40.0,0.1,0.0,0.0,1.0,-1.0,0.1,0.5,0.05,0.7,0.0,2.8,0.08,3.7,0.33 /
10041  , 'TGOV1'  , 1  , 0.50000E-01  , 0.20000  , 1.5000  , -1.5000  , 
2.6160  , 8.7200  , 0.0000 /
10042  , 'GENROU'  , 1  , 6.0000  , 0.60000E-01  , 0.90000  , 0.60000E-01  , 
2.4862  , 2.0000  , 2.0400  , 1.9600  , 0.26600  , 
0.26200  , 0.19300  , 0.15400  , 0.34000  , 1.1200 /
10042  , 'EXDC1'  , 1,0.0,40.0,0.1,0.0,0.0,1.0,-1.0,0.1,0.5,0.05,0.7,0.0,2.8,0.08,3.7,0.33 /
10042  , 'TGOV1'  , 1  , 0.50000E-01  , 0.20000  , 1.5000  , -1.5000  , 
2.6160  , 8.7200  , 0.0000 /
10043  , 'GENROU'  , 1  , 0.84180  , 0.60000E-01  , 0.86760  , 0.60000E-01  , 
3.7040  , 2.0000  , 1.7668  , 1.7469  , 0.27380  , 
1.0104  , 0.22840  , 0.18340  , 0.26320  , 0.53510 /
10043  , 'EXDC1'  , 1,0.0,40.0,0.1,0.0,0.0,1.0,-1.0,0.1,0.5,0.05,0.7,0.0,2.8,0.08,3.7,0.33 /
10043  , 'TGOV1'  , 1  , 0.50000E-01  , 0.20000  , 1.5000  , -1.5000  , 
2.6160  , 8.7200  , 0.0000 /
10044  , 'GENROU'  , 1  , 4.8000  , 0.60000E-01  , 0.50000  , 0.60000E-01  , 
4.1296  , 2.0000  , 1.7000  , 1.6200  , 0.25600  , 
0.24500  , 0.18500  , 0.15500  , 0.12500  , 0.45000 /
10044  , 'EXDC1'  , 1,0.0,40.0,0.1,0.0,0.0,1.0,-1.0,0.1,0.5,0.05,0.7,0.0,2.8,0.08,3.7,0.33 /
10044  , 'TGOV1'  , 1  , 0.50000E-01  , 0.20000  , 1.5000  , -1.5000  , 
2.6160  , 8.7200  , 0.0000 /
10045  , 'GENROU'  , 1  , 5.6900  , 0.60000E-01  , 1.5000  , 0.14400  , 
2.6419  , 2.0000  , 2.1830  , 2.1570  , 0.41300  , 
1.2850  , 0.33900  , 0.24600  , 0.13400  , 0.61700 /
10045  , 'EXDC1'  , 1,0.0,40.0,0.1,0.0,0.0,1.0,-1.0,0.1,0.5,0.05,0.7,0.0,2.8,0.08,3.7,0.33 /
10045  , 'TGOV1'  , 1  , 0.50000E-01  , 0.20000  , 1.5000  , -1.5000  , 
2.6160  , 8.7200  , 0.0000 /
10046  , 'GENROU'  , 1  , 6.0000  , 0.60000E-01  , 0.90000  , 0.60000E-01  , 
2.4862  , 2.0000  , 2.0400  , 1.9600  , 0.26600  , 
0.26200  , 0.19300  , 0.15400  , 0.34000  , 1.1200 /
10046  , 'EXDC1'  , 1,0.0,40.0,0.1,0.0,0.0,1.0,-1.0,0.1,0.5,0.05,0.7,0.0,2.8,0.08,3.7,0.33 /
10046  , 'TGOV1'  , 1  , 0.50000E-01  , 0.20000  , 1.5000  , -1.5000  , 
2.6160  , 8.7200  , 0.0000 /
10047  , 'GENROU'  , 1  , 6.0000  , 0.60000E-01  , 0.90000  , 0.60000E-01  , 
2.4862  , 2.0000  , 2.0400  , 1.9600  , 0.26600  , 
0.26200  , 0.19300  , 0.15400  , 0.34000  , 1.1200 /
10047  , 'EXDC1'  , 1,0.0,40.0,0.1,0.0,0.0,1.0,-1.0,0.1,0.5,0.05,0.7,0.0,2.8,0.08,3.7,0.33 /
10048  , 'GENROU'  , 1  , 0.84180  , 0.60000E-01  , 0.86760  , 0.60000E-01  , 
3.7040  , 2.0000  , 1.7668  , 1.7469  , 0.27380  , 
1.0104  , 0.22840  , 0.18340  , 0.26320  , 0.53510 /
10048  , 'EXDC1'  , 1,0.0,40.0,0.1,0.0,0.0,1.0,-1.0,0.1,0.5,0.05,0.7,0.0,2.8,0.08,3.7,0.33 /
10048  , 'TGOV1'  , 1  , 0.50000E-01  , 0.20000  , 1.5000  , -1.5000  , 
2.6160  , 8.7200  , 0.0000 /
10049  , 'GENROU'  , 1  , 5.6900  , 0.60000E-01  , 1.5000  , 0.14400  , 
2.6419  , 2.0000  , 2.1830  , 2.1570  , 0.41300  , 
1.2850  , 0.33900  , 0.24600  , 0.13400  , 0.61700 /
10049  , 'EXDC1'  , 1,0.0,40.0,0.1,0.0,0.0,1.0,-1.0,0.1,0.5,0.05,0.7,0.0,2.8,0.08,3.7,0.33 /
10049  , 'TGOV1'  , 1  , 0.50000E-01  , 0.20000  , 1.5000  , -1.5000  , 
2.6160  , 8.7200  , 0.0000 /
10050  , 'GENROU'  , 1  , 5.6900  , 0.60000E-01  , 1.5000  , 0.14400  , 
2.6419  , 2.0000  , 2.1830  , 2.1570  , 0.41300  , 
1.2850  , 0.33900  , 0.24600  , 0.13400  , 0.61700 /
10050  , 'EXDC1'  , 1,0.0,40.0,0.1,0.0,0.0,1.0,-1.0,0.1,0.5,0.05,0.7,0.0,2.8,0.08,3.7,0.33 /
10050  , 'TGOV1'  , 1  , 0.50000E-01  , 0.20000  , 1.5000  , -1.5000  , 
2.6160  , 8.7200  , 0.0000 /
10051  , 'GENROU'  , 1  , 0.84180  , 0.60000E-01  , 0.86760  , 0.60000E-01  , 
3.7040  , 2.0000  , 1.7668  , 1.7469  , 0.27380  , 
1.0104  , 0.22840  , 0.18340  , 0.26320  , 0.53510 /
10051  , 'EXDC1'  , 1,0.0,40.0,0.1,0.0,0.0,1.0,-1.0,0.1,0.5,0.05,0.7,0.0,2.8,0.08,3.7,0.33 /
10051  , 'TGOV1'  , 1  , 0.50000E-01  , 0.20000  , 1.5000  , -1.5000  , 
2.6160  , 8.7200  , 0.0000 /
10052  , 'GENROU'  , 1  , 5.6900  , 0.60000E-01  , 1.5000  , 0.14400  , 
2.6419  , 2.0000  , 2.1830  , 2.1570  , 0.41300  , 
1.2850  , 0.33900  , 0.24600  , 0.13400  , 0.61700 /
10052  , 'EXDC1'  , 1,0.0,40.0,0.1,0.0,0.0,1.0,-1.0,0.1,0.5,0.05,0.7,0.0,2.8,0.08,3.7,0.33 /
10052  , 'TGOV1'  , 1  , 0.50000E-01  , 0.20000  , 1.5000  , -1.5000  , 
2.6160  , 8.7200  , 0.0000 /
10053  , 'GENROU'  , 1  , 5.6900  , 0.60000E-01  , 1.5000  , 0.14400  , 
2.6419  , 2.0000  , 2.1830  , 2.1570  , 0.41300  , 
1.2850  , 0.33900  , 0.24600  , 0.13400  , 0.61700 /
10053  , 'EXDC1'  , 1,0.0,40.0,0.1,0.0,0.0,1.0,-1.0,0.1,0.5,0.05,0.7,0.0,2.8,0.08,3.7,0.33 /
10053  , 'TGOV1'  , 1  , 0.50000E-01  , 0.20000  , 1.5000  , -1.5000  , 
2.6160  , 8.7200  , 0.0000 /
10054  , 'GENROU'  , 1  , 8.9700  , 0.60000E-01  , 0.50000  , 0.70000E-01  , 
4.7680  , 2.0000  , 1.2200  , 1.1600  , 0.17400  , 
0.25000  , 0.13400  , 0.78000E-02  , 0.10260  , 0.43200 /
10054  , 'EXDC1'  , 1,0.0,40.0,0.1,0.0,0.0,1.0,-1.0,0.1,0.5,0.05,0.7,0.0,2.8,0.08,3.7,0.33 /
10054  , 'TGOV1'  , 1  , 0.50000E-01  , 0.20000  , 1.5000  , -1.5000  , 
2.6160  , 8.7200  , 0.0000 /
10055  , 'GENROU'  , 1  , 5.6900  , 0.60000E-01  , 1.5000  , 0.14400  , 
2.6419  , 2.0000  , 2.1830  , 2.1570  , 0.41300  , 
1.2850  , 0.33900  , 0.24600  , 0.13400  , 0.61700 /
10055  , 'EXDC1'  , 1,0.0,40.0,0.1,0.0,0.0,1.0,-1.0,0.1,0.5,0.05,0.7,0.0,2.8,0.08,3.7,0.33 /
10055  , 'TGOV1'  , 1  , 0.50000E-01  , 0.20000  , 1.5000  , -1.5000  , 
2.6160  , 8.7200  , 0.0000 /
10056  , 'GENROU'  , 1  , 8.9700  , 0.60000E-01  , 0.50000  , 0.70000E-01  , 
4.7680  , 2.0000  , 1.2200  , 1.1600  , 0.17400  , 
0.25000  , 0.13400  , 0.78000E-02  , 0.10260  , 0.43200 /
10056  , 'EXDC1'  , 1,0.0,40.0,0.1,0.0,0.0,1.0,-1.0,0.1,0.5,0.05,0.7,0.0,2.8,0.08,3.7,0.33 /
10056  , 'TGOV1'  , 1  , 0.50000E-01  , 0.20000  , 1.5000  , -1.5000  , 
2.6160  , 8.7200  , 0.0000 /
10057  , 'GENROU'  , 1  , 0.84180  , 0.60000E-01  , 0.86760  , 0.60000E-01  , 
3.7040  , 2.0000  , 1.7668  , 1.7469  , 0.27380  , 
1.0104  , 0.22840  , 0.18340  , 0.26320  , 0.53510 /
10057  , 'EXDC1'  , 1,0.0,40.0,0.1,0.0,0.0,1.0,-1.0,0.1,0.5,0.05,0.7,0.0,2.8,0.08,3.7,0.33 /
10057  , 'TGOV1'  , 1  , 0.50000E-01  , 0.20000  , 1.5000  , -1.5000  , 
2.6160  , 8.7200  , 0.0000 /
10058  , 'GENROU'  , 1  , 5.6900  , 0.60000E-01  , 1.5000  , 0.14400  , 
2.6419  , 2.0000  , 2.1830  , 2.1570  , 0.41300  , 
1.2850  , 0.33900  , 0.24600  , 0.13400  , 0.61700 /
10058  , 'EXDC1'  , 1,0.0,40.0,0.1,0.0,0.0,1.0,-1.0,0.1,0.5,0.05,0.7,0.0,2.8,0.08,3.7,0.33 /
10058  , 'TGOV1'  , 1  , 0.50000E-01  , 0.20000  , 1.5000  , -1.5000  , 
2.6160  , 8.7200  , 0.0000 /
10059  , 'GENROU'  , 1  , 5.6900  , 0.60000E-01  , 1.5000  , 0.14400  , 
2.6419  , 2.0000  , 2.1830  , 2.1570  , 0.41300  , 
1.2850  , 0.33900  , 0.24600  , 0.13400  , 0.61700 /
10059  , 'EXDC1'  , 1,0.0,40.0,0.1,0.0,0.0,1.0,-1.0,0.1,0.5,0.05,0.7,0.0,2.8,0.08,3.7,0.33 /
10059  , 'TGOV1'  , 1  , 0.50000E-01  , 0.20000  , 1.5000  , -1.5000  , 
2.6160  , 8.7200  , 0.0000 /
10060  , 'GENROU'  , 1  , 4.8000  , 0.60000E-01  , 0.50000  , 0.60000E-01  , 
4.1296  , 2.0000  , 1.7000  , 1.6200  , 0.25600  , 
0.24500  , 0.18500  , 0.15500  , 0.12500  , 0.45000 /
10060  , 'EXDC1'  , 1,0.0,40.0,0.1,0.0,0.0,1.0,-1.0,0.1,0.5,0.05,0.7,0.0,2.8,0.08,3.7,0.33 /
10060  , 'TGOV1'  , 1  , 0.50000E-01  , 0.20000  , 1.5000  , -1.5000  , 
2.6160  , 8.7200  , 0.0000 /
10061  , 'GENROU'  , 1  , 6.0000  , 0.60000E-01  , 0.90000  , 0.60000E-01  , 
2.4862  , 2.0000  , 2.0400  , 1.9600  , 0.26600  , 
0.26200  , 0.19300  , 0.15400  , 0.34000  , 1.1200 /
10061  , 'EXDC1'  , 1,0.0,40.0,0.1,0.0,0.0,1.0,-1.0,0.1,0.5,0.05,0.7,0.0,2.8,0.08,3.7,0.33 /
10062  , 'GENROU'  , 1  , 6.0000  , 0.60000E-01  , 0.90000  , 0.60000E-01  , 
2.4862  , 2.0000  , 2.0400  , 1.9600  , 0.26600  , 
0.26200  , 0.19300  , 0.15400  , 0.34000  , 1.1200 /
10062  , 'EXDC1'  , 1,0.0,40.0,0.1,0.0,0.0,1.0,-1.0,0.1,0.5,0.05,0.7,0.0,2.8,0.08,3.7,0.33 /
10062  , 'TGOV1'  , 1  , 0.50000E-01  , 0.20000  , 1.5000  , -1.5000  , 
2.6160  , 8.7200  , 0.0000 /
10063  , 'GENROU'  , 1  , 6.0000  , 0.60000E-01  , 0.90000  , 0.60000E-01  , 
2.4862  , 2.0000  , 2.0400  , 1.9600  , 0.26600  , 
0.26200  , 0.19300  , 0.15400  , 0.34000  , 1.1200 /
10063  , 'EXDC1'  , 1,0.0,40.0,0.1,0.0,0.0,1.0,-1.0,0.1,0.5,0.05,0.7,0.0,2.8,0.08,3.7,0.33 /
10063  , 'TGOV1'  , 1  , 0.50000E-01  , 0.20000  , 1.5000  , -1.5000  , 
2.6160  , 8.7200  , 0.0000 /
10064  , 'GENROU'  , 1  , 4.7500  , 0.60000E-01  , 1.5000  , 0.21000  , 
5.0160  , 0.0000  , 1.2500  , 1.2200  , 0.23200  , 
0.71500  , 0.12000  , 0.11900  , 0.27900  , 0.88600 /
10064  , 'EXDC1'  , 1,0.0,40.0,0.1,0.0,0.0,1.0,-1.0,0.1,0.5,0.05,0.7,0.0,2.8,0.08,3.7,0.33 /
10065  , 'GENROU'  , 1  , 8.9700  , 0.60000E-01  , 0.50000  , 0.70000E-01  , 
4.7680  , 2.0000  , 1.2200  , 1.1600  , 0.17400  , 
0.25000  , 0.13400  , 0.78000E-02  , 0.10260  , 0.43200 /
10065  , 'EXDC1'  , 1,0.0,40.0,0.1,0.0,0.0,1.0,-1.0,0.1,0.5,0.05,0.7,0.0,2.8,0.08,3.7,0.33 /
10066  , 'GENROU'  , 1  , 8.9700  , 0.60000E-01  , 0.50000  , 0.70000E-01  , 
4.7680  , 2.0000  , 1.2200  , 1.1600  , 0.17400  , 
0.25000  , 0.13400  , 0.78000E-02  , 0.10260  , 0.43200 /
10066  , 'EXDC1'  , 1,0.0,40.0,0.1,0.0,0.0,1.0,-1.0,0.1,0.5,0.05,0.7,0.0,2.8,0.08,3.7,0.33 /
10067  , 'GENROU'  , 1  , 8.9700  , 0.60000E-01  , 0.50000  , 0.70000E-01  , 
4.7680  , 2.0000  , 1.2200  , 1.1600  , 0.17400  , 
0.25000  , 0.13400  , 0.78000E-02  , 0.10260  , 0.43200 /
10067  , 'EXDC1'  , 1,0.0,40.0,0.1,0.0,0.0,1.0,-1.0,0.1,0.5,0.05,0.7,0.0,2.8,0.08,3.7,0.33 /
10067  , 'TGOV1'  , 1  , 0.50000E-01  , 0.20000  , 1.5000  , -1.5000  , 
2.6160  , 8.7200  , 0.0000 /
10068  , 'GENROU'  , 1  , 4.7500  , 0.60000E-01  , 1.5000  , 0.21000  , 
5.0160  , 0.0000  , 1.2500  , 1.2200  , 0.23200  , 
0.71500  , 0.12000  , 0.11900  , 0.27900  , 0.88600 /
10068  , 'EXDC1'  , 1,0.0,40.0,0.1,0.0,0.0,1.0,-1.0,0.1,0.5,0.05,0.7,0.0,2.8,0.08,3.7,0.33 /
10068  , 'TGOV1'  , 1  , 0.50000E-01  , 0.20000  , 1.5000  , -1.5000  , 
2.6160  , 8.7200  , 0.0000 /
20001, 'USRLOD' ,1, 'ACMTBLU1' ,12,1,0,35,9,29,16,0.033,0.4,0.02,0.05,0,0.97,0.7,0.124,0.114,0.3,0.0,1.0,6.0,2.0,12.0,3.2,11.0,2.5,0.86,0.2,0.9,1.0,-3.3,0.45,0.35,0.5,0.4,10.0,1.3,4.3,0.0,0.8,0.2,0.9,5.0 /
20002, 'USRLOD' ,1, 'ACMTBLU1' ,12,1,0,35,9,29,16,0.033,0.4,0.02,0.05,0,0.97,0.7,0.124,0.114,0.3,0.0,1.0,6.0,2.0,12.0,3.2,11.0,2.5,0.86,0.2,0.9,1.0,-3.3,0.45,0.35,0.5,0.4,10.0,1.3,4.3,0.0,0.8,0.2,0.9,5.0 /
20005, 'USRLOD' ,1, 'ACMTBLU1' ,12,1,0,35,9,29,16,0.033,0.4,0.02,0.05,0,0.97,0.7,0.124,0.114,0.3,0.0,1.0,6.0,2.0,12.0,3.2,11.0,2.5,0.86,0.2,0.9,1.0,-3.3,0.45,0.35,0.5,0.4,10.0,1.3,4.3,0.0,0.8,0.2,0.9,5.0 /
20006, 'USRLOD' ,1, 'ACMTBLU1' ,12,1,0,35,9,29,16,0.033,0.4,0.02,0.05,0,0.97,0.7,0.124,0.114,0.3,0.0,1.0,6.0,2.0,12.0,3.2,11.0,2.5,0.86,0.2,0.9,1.0,-3.3,0.45,0.35,0.5,0.4,10.0,1.3,4.3,0.0,0.8,0.2,0.9,5.0 /
20008, 'USRLOD' ,1, 'ACMTBLU1' ,12,1,0,35,9,29,16,0.033,0.4,0.02,0.05,0,0.97,0.7,0.124,0.114,0.3,0.0,1.0,6.0,2.0,12.0,3.2,11.0,2.5,0.86,0.2,0.9,1.0,-3.3,0.45,0.35,0.5,0.4,10.0,1.3,4.3,0.0,0.8,0.2,0.9,5.0 /
20009, 'USRLOD' ,1, 'ACMTBLU1' ,12,1,0,35,9,29,16,0.033,0.4,0.02,0.05,0,0.97,0.7,0.124,0.114,0.3,0.0,1.0,6.0,2.0,12.0,3.2,11.0,2.5,0.86,0.2,0.9,1.0,-3.3,0.45,0.35,0.5,0.4,10.0,1.3,4.3,0.0,0.8,0.2,0.9,5.0 /
20010, 'USRLOD' ,1, 'ACMTBLU1' ,12,1,0,35,9,29,16,0.033,0.4,0.02,0.05,0,0.97,0.7,0.124,0.114,0.3,0.0,1.0,6.0,2.0,12.0,3.2,11.0,2.5,0.86,0.2,0.9,1.0,-3.3,0.45,0.35,0.5,0.4,10.0,1.3,4.3,0.0,0.8,0.2,0.9,5.0 /
20011, 'USRLOD' ,1, 'ACMTBLU1' ,12,1,0,35,9,29,16,0.033,0.4,0.02,0.05,0,0.97,0.7,0.124,0.114,0.3,0.0,1.0,6.0,2.0,12.0,3.2,11.0,2.5,0.86,0.2,0.9,1.0,-3.3,0.45,0.35,0.5,0.4,10.0,1.3,4.3,0.0,0.8,0.2,0.9,5.0 /
20013, 'USRLOD' ,1, 'ACMTBLU1' ,12,1,0,35,9,29,16,0.033,0.4,0.02,0.05,0,0.97,0.7,0.124,0.114,0.3,0.0,1.0,6.0,2.0,12.0,3.2,11.0,2.5,0.86,0.2,0.9,1.0,-3.3,0.45,0.35,0.5,0.4,10.0,1.3,4.3,0.0,0.8,0.2,0.9,5.0 /
20014, 'USRLOD' ,1, 'ACMTBLU1' ,12,1,0,35,9,29,16,0.033,0.4,0.02,0.05,0,0.97,0.7,0.124,0.114,0.3,0.0,1.0,6.0,2.0,12.0,3.2,11.0,2.5,0.86,0.2,0.9,1.0,-3.3,0.45,0.35,0.5,0.4,10.0,1.3,4.3,0.0,0.8,0.2,0.9,5.0 /
20015, 'USRLOD' ,1, 'ACMTBLU1' ,12,1,0,35,9,29,16,0.033,0.4,0.02,0.05,0,0.97,0.7,0.124,0.114,0.3,0.0,1.0,6.0,2.0,12.0,3.2,11.0,2.5,0.86,0.2,0.9,1.0,-3.3,0.45,0.35,0.5,0.4,10.0,1.3,4.3,0.0,0.8,0.2,0.9,5.0 /
20017, 'USRLOD' ,1, 'ACMTBLU1' ,12,1,0,35,9,29,16,0.033,0.4,0.02,0.05,0,0.97,0.7,0.124,0.114,0.3,0.0,1.0,6.0,2.0,12.0,3.2,11.0,2.5,0.86,0.2,0.9,1.0,-3.3,0.45,0.35,0.5,0.4,10.0,1.3,4.3,0.0,0.8,0.2,0.9,5.0 /
20020, 'USRLOD' ,1, 'ACMTBLU1' ,12,1,0,35,9,29,16,0.033,0.4,0.02,0.05,0,0.97,0.7,0.124,0.114,0.3,0.0,1.0,6.0,2.0,12.0,3.2,11.0,2.5,0.86,0.2,0.9,1.0,-3.3,0.45,0.35,0.5,0.4,10.0,1.3,4.3,0.0,0.8,0.2,0.9,5.0 /
20021, 'USRLOD' ,1, 'ACMTBLU1' ,12,1,0,35,9,29,16,0.033,0.4,0.02,0.05,0,0.97,0.7,0.124,0.114,0.3,0.0,1.0,6.0,2.0,12.0,3.2,11.0,2.5,0.86,0.2,0.9,1.0,-3.3,0.45,0.35,0.5,0.4,10.0,1.3,4.3,0.0,0.8,0.2,0.9,5.0 /
20022, 'USRLOD' ,1, 'ACMTBLU1' ,12,1,0,35,9,29,16,0.033,0.4,0.02,0.05,0,0.97,0.7,0.124,0.114,0.3,0.0,1.0,6.0,2.0,12.0,3.2,11.0,2.5,0.86,0.2,0.9,1.0,-3.3,0.45,0.35,0.5,0.4,10.0,1.3,4.3,0.0,0.8,0.2,0.9,5.0 /
20027, 'USRLOD' ,1, 'ACMTBLU1' ,12,1,0,35,9,29,16,0.033,0.4,0.02,0.05,0,0.97,0.7,0.124,0.114,0.3,0.0,1.0,6.0,2.0,12.0,3.2,11.0,2.5,0.86,0.2,0.9,1.0,-3.3,0.45,0.35,0.5,0.4,10.0,1.3,4.3,0.0,0.8,0.2,0.9,5.0 /
20033, 'USRLOD' ,1, 'ACMTBLU1' ,12,1,0,35,9,29,16,0.033,0.4,0.02,0.05,0,0.97,0.7,0.124,0.114,0.3,0.0,1.0,6.0,2.0,12.0,3.2,11.0,2.5,0.86,0.2,0.9,1.0,-3.3,0.45,0.35,0.5,0.4,10.0,1.3,4.3,0.0,0.8,0.2,0.9,5.0 /
20037, 'USRLOD' ,1, 'ACMTBLU1' ,12,1,0,35,9,29,16,0.033,0.4,0.02,0.05,0,0.97,0.7,0.124,0.114,0.3,0.0,1.0,6.0,2.0,12.0,3.2,11.0,2.5,0.86,0.2,0.9,1.0,-3.3,0.45,0.35,0.5,0.4,10.0,1.3,4.3,0.0,0.8,0.2,0.9,5.0 /
20038, 'USRLOD' ,1, 'ACMTBLU1' ,12,1,0,35,9,29,16,0.033,0.4,0.02,0.05,0,0.97,0.7,0.124,0.114,0.3,0.0,1.0,6.0,2.0,12.0,3.2,11.0,2.5,0.86,0.2,0.9,1.0,-3.3,0.45,0.35,0.5,0.4,10.0,1.3,4.3,0.0,0.8,0.2,0.9,5.0 /
20044, 'USRLOD' ,1, 'ACMTBLU1' ,12,1,0,35,9,29,16,0.033,0.4,0.02,0.05,0,0.97,0.7,0.124,0.114,0.3,0.0,1.0,6.0,2.0,12.0,3.2,11.0,2.5,0.86,0.2,0.9,1.0,-3.3,0.45,0.35,0.5,0.4,10.0,1.3,4.3,0.0,0.8,0.2,0.9,5.0 /
20047, 'USRLOD' ,1, 'ACMTBLU1' ,12,1,0,35,9,29,16,0.033,0.4,0.02,0.05,0,0.97,0.7,0.124,0.114,0.3,0.0,1.0,6.0,2.0,12.0,3.2,11.0,2.5,0.86,0.2,0.9,1.0,-3.3,0.45,0.35,0.5,0.4,10.0,1.3,4.3,0.0,0.8,0.2,0.9,5.0 /
20049, 'USRLOD' ,1, 'ACMTBLU1' ,12,1,0,35,9,29,16,0.033,0.4,0.02,0.05,0,0.97,0.7,0.124,0.114,0.3,0.0,1.0,6.0,2.0,12.0,3.2,11.0,2.5,0.86,0.2,0.9,1.0,-3.3,0.45,0.35,0.5,0.4,10.0,1.3,4.3,0.0,0.8,0.2,0.9,5.0 /
20052, 'USRLOD' ,1, 'ACMTBLU1' ,12,1,0,35,9,29,16,0.033,0.4,0.02,0.05,0,0.97,0.7,0.124,0.114,0.3,0.0,1.0,6.0,2.0,12.0,3.2,11.0,2.5,0.86,0.2,0.9,1.0,-3.3,0.45,0.35,0.5,0.4,10.0,1.3,4.3,0.0,0.8,0.2,0.9,5.0 /
20053, 'USRLOD' ,1, 'ACMTBLU1' ,12,1,0,35,9,29,16,0.033,0.4,0.02,0.05,0,0.97,0.7,0.124,0.114,0.3,0.0,1.0,6.0,2.0,12.0,3.2,11.0,2.5,0.86,0.2,0.9,1.0,-3.3,0.45,0.35,0.5,0.4,10.0,1.3,4.3,0.0,0.8,0.2,0.9,5.0 /
20057, 'USRLOD' ,1, 'ACMTBLU1' ,12,1,0,35,9,29,16,0.033,0.4,0.02,0.05,0,0.97,0.7,0.124,0.114,0.3,0.0,1.0,6.0,2.0,12.0,3.2,11.0,2.5,0.86,0.2,0.9,1.0,-3.3,0.45,0.35,0.5,0.4,10.0,1.3,4.3,0.0,0.8,0.2,0.9,5.0 /
20059, 'USRLOD' ,1, 'ACMTBLU1' ,12,1,0,35,9,29,16,0.033,0.4,0.02,0.05,0,0.97,0.7,0.124,0.114,0.3,0.0,1.0,6.0,2.0,12.0,3.2,11.0,2.5,0.86,0.2,0.9,1.0,-3.3,0.45,0.35,0.5,0.4,10.0,1.3,4.3,0.0,0.8,0.2,0.9,5.0 /
20061, 'USRLOD' ,1, 'ACMTBLU1' ,12,1,0,35,9,29,16,0.033,0.4,0.02,0.05,0,0.97,0.7,0.124,0.114,0.3,0.0,1.0,6.0,2.0,12.0,3.2,11.0,2.5,0.86,0.2,0.9,1.0,-3.3,0.45,0.35,0.5,0.4,10.0,1.3,4.3,0.0,0.8,0.2,0.9,5.0 /
20063, 'USRLOD' ,1, 'ACMTBLU1' ,12,1,0,35,9,29,16,0.033,0.4,0.02,0.05,0,0.97,0.7,0.124,0.114,0.3,0.0,1.0,6.0,2.0,12.0,3.2,11.0,2.5,0.86,0.2,0.9,1.0,-3.3,0.45,0.35,0.5,0.4,10.0,1.3,4.3,0.0,0.8,0.2,0.9,5.0 /
20070, 'USRLOD' ,1, 'ACMTBLU1' ,12,1,0,35,9,29,16,0.033,0.4,0.02,0.05,0,0.97,0.7,0.124,0.114,0.3,0.0,1.0,6.0,2.0,12.0,3.2,11.0,2.5,0.86,0.2,0.9,1.0,-3.3,0.45,0.35,0.5,0.4,10.0,1.3,4.3,0.0,0.8,0.2,0.9,5.0 /