0,   100.00, 30, 0, 1,  60.00     / PSS(R)E 30 RAW created by rawd30  WED, MAY 13 2020  14:35
 00/00/01                      100.0  0    0
 0
     1,'1           ', 115.0000,1,     0.000,     0.000,   1,   1,1.01311,  -1.7580,   1
     2,'2           ', 115.0000,1,     0.000,     0.000,   1,   1,1.02746,   0.6567,   1
     3,'3           ', 230.0000,1,     0.000,     0.000,   1,   1,0.97923,  -0.8385,   1
     4,'4           ', 345.0000,1,     0.000,     0.000,   1,   1,1.00784,  -3.3140,   1
     5,'5           ', 115.0000,1,     0.000,     0.000,   1,   1,1.00037,  -3.5354,   1
     6,'6           ', 115.0000,1,     0.000,     0.000,   1,   1,1.01982,  -0.3736,   1
     7,'7           ', 230.0000,1,     0.000,     0.000,   1,   1,0.97625,  -1.5375,   1
     8,'8           ', 115.0000,1,     0.000,     0.000,   1,   1,1.01529,  -6.8161,   1
     9,'9           ', 115.0000,1,     0.000,     0.000,   1,   1,0.98815,  -6.1540,   1
    10,'10          ', 230.0000,1,     0.000,     0.000,   1,   1,1.02049,  -8.2256,   1
    11,'11          ', 115.0000,1,     0.000,     0.000,   1,   1,1.00045,  -6.7583,   1
    12,'12          ', 230.0000,1,     0.000,     0.000,   1,   1,0.98470,  -2.9056,   1
    13,'13          ', 115.0000,1,     0.000,     0.000,   1,   1,0.99239, -10.9395,   1
    14,'14          ', 115.0000,1,     0.000,     0.000,   1,   1,0.97158, -16.3213,   1
    15,'15          ', 115.0000,1,     0.000,     0.000,   1,   1,1.00410, -21.1905,   1
    16,'16          ', 345.0000,1,     0.000,     0.000,   1,   1,0.99450, -12.8355,   1
    17,'17          ', 115.0000,1,     0.000,     0.000,   1,   1,1.03769, -28.0446,   1
    19,'19          ', 230.0000,1,     0.000,     0.000,   1,   1,0.96534,  -8.6463,   1
    20,'20          ', 115.0000,1,     0.000,     0.000,   1,   1,1.00098, -13.5836,   1
    21,'21          ', 230.0000,1,     0.000,     0.000,   1,   1,0.96360,  -7.9596,   1
    22,'22          ', 115.0000,1,     0.000,     0.000,   1,   1,0.98857, -12.8363,   1
    23,'23          ', 115.0000,1,     0.000,     0.000,   1,   1,1.04662,  -4.5300,   1
    24,'24          ', 230.0000,1,     0.000,     0.000,   1,   1,0.99845,  -1.7525,   1
    25,'25          ', 115.0000,1,     0.000,     0.000,   1,   1,1.00864,  -7.9352,   1
    26,'26          ', 115.0000,1,     0.000,     0.000,   1,   1,0.97466, -12.3530,   1
    27,'27          ', 115.0000,1,     0.000,     0.000,   1,   1,0.94788, -16.8473,   1
    33,'33          ', 115.0000,1,     0.000,     0.000,   1,   1,0.97270, -24.3720,   1
    34,'34          ', 345.0000,1,     0.000,     0.000,   1,   1,0.99629, -19.4098,   1
    35,'35          ', 115.0000,1,     0.000,     0.000,   1,   1,0.96739, -46.8421,   1
    36,'36          ', 230.0000,1,     0.000,     0.000,   1,   1,0.97191, -42.2057,   1
    37,'37          ', 115.0000,1,     0.000,     0.000,   1,   1,0.97255, -22.4432,   1
    38,'38          ', 115.0000,1,     0.000,     0.000,   1,   1,0.96703, -25.0834,   1
    39,'39          ', 345.0000,1,     0.000,     0.000,   1,   1,1.01585, -16.4318,   1
    40,'40          ', 115.0000,1,     0.000,     0.000,   1,   1,0.97149, -25.3880,   1
    41,'41          ', 115.0000,1,     0.000,     0.000,   1,   1,0.97769, -21.7482,   1
    42,'42          ', 345.0000,1,     0.000,     0.000,   1,   1,1.00097, -18.8218,   1
    43,'43          ', 115.0000,1,     0.000,     0.000,   1,   1,0.94171, -32.5016,   1
    44,'44          ', 115.0000,1,     0.000,     0.000,   1,   1,0.95610, -34.2640,   1
    45,'45          ', 230.0000,1,     0.000,     0.000,   1,   1,0.97068, -30.4675,   1
    46,'46          ', 345.0000,1,     0.000,     0.000,   1,   1,0.98289, -25.5744,   1
    47,'47          ', 115.0000,1,     0.000,     0.000,   1,   1,0.92132, -42.7486,   1
    48,'48          ', 115.0000,1,     0.000,     0.000,   1,   1,0.96166, -31.2446,   1
    49,'49          ', 115.0000,1,     0.000,     0.000,   1,   1,1.03379,  -5.1754,   1
    51,'51          ', 115.0000,1,     0.000,     0.000,   1,   1,0.97646, -16.2683,   1
    52,'52          ', 115.0000,1,     0.000,     0.000,   1,   1,0.93975, -23.8895,   1
    53,'53          ', 115.0000,1,     0.000,     0.000,   1,   1,0.93538, -33.8668,   1
    54,'54          ', 115.0000,1,     0.000,     0.000,   1,   1,0.95044, -32.0462,   1
    55,'55          ', 115.0000,1,     0.000,     0.000,   1,   1,0.97258, -25.9344,   1
    57,'57          ', 115.0000,1,     0.000,     0.000,   1,   1,1.01679, -22.6048,   1
    58,'58          ', 115.0000,1,     0.000,     0.000,   1,   1,0.96473, -20.9600,   1
    59,'59          ', 115.0000,1,     0.000,     0.000,   1,   1,0.94965, -20.3080,   1
    60,'60          ', 230.0000,1,     0.000,     0.000,   1,   1,0.98534, -24.5554,   1
    61,'61          ', 115.0000,1,     0.000,     0.000,   1,   1,0.96819, -17.8711,   1
    62,'62          ', 230.0000,1,     0.000,     0.000,   1,   1,0.99936, -15.2158,   1
    63,'63          ', 115.0000,1,     0.000,     0.000,   1,   1,0.95829, -38.5986,   1
    64,'64          ', 230.0000,1,     0.000,     0.000,   1,   1,0.93248, -32.2230,   1
    69,'69          ', 115.0000,1,     0.000,     0.000,   1,   1,0.92869, -46.7829,   1
    70,'70          ', 115.0000,1,     0.000,     0.000,   1,   1,0.90353, -60.2962,   1
    71,'71          ', 115.0000,1,     0.000,     0.000,   1,   1,0.94988, -52.6087,   1
    72,'72          ', 115.0000,1,     0.000,     0.000,   1,   1,0.95139, -49.2430,   1
    73,'73          ', 115.0000,1,     0.000,     0.000,   1,   1,0.94194, -46.6290,   1
    74,'74          ', 230.0000,1,     0.000,     0.000,   1,   1,0.95062, -41.1857,   1
    76,'76          ', 115.0000,1,     0.000,     0.000,   1,   1,0.96317, -48.3327,   1
    77,'77          ', 115.0000,1,     0.000,     0.000,   1,   1,0.97245, -45.6655,   1
    78,'78          ', 115.0000,1,     0.000,     0.000,   1,   1,0.97821, -44.4089,   1
    79,'79          ', 115.0000,1,     0.000,     0.000,   1,   1,0.96044, -45.6434,   1
    80,'80          ', 115.0000,1,     0.000,     0.000,   1,   1,0.97077, -45.4649,   1
    81,'81          ', 345.0000,1,     0.000,     0.000,   1,   1,0.99591, -36.4075,   1
    84,'84          ', 115.0000,1,     0.000,     0.000,   1,   1,1.02498, -34.9011,   1
    85,'85          ', 230.0000,1,     0.000,     0.000,   1,   1,0.97474, -34.9022,   1
    86,'86          ', 230.0000,1,     0.000,     0.000,   1,   1,0.97188, -29.8790,   1
    87,'87          ', 230.0000,1,     0.000,     0.000,   1,   1,0.96742, -20.8667,   1
    88,'88          ', 230.0000,1,     0.000,     0.000,   1,   1,0.97786, -39.5843,   1
    89,'89          ', 115.0000,1,     0.000,     0.000,   1,   1,1.00853, -24.3775,   1
    90,'90          ', 115.0000,1,     0.000,     0.000,   1,   1,0.99419, -23.8133,   1
    91,'91          ', 115.0000,1,     0.000,     0.000,   1,   1,1.05199, -22.7234,   1
    92,'92          ', 115.0000,1,     0.000,     0.000,   1,   1,1.05199, -17.7883,   1
    94,'94          ', 115.0000,1,     0.000,     0.000,   1,   1,0.97286, -23.1236,   1
    97,'97          ', 115.0000,1,     0.000,     0.000,   1,   1,1.00932, -28.1720,   1
    98,'98          ', 115.0000,1,     0.000,     0.000,   1,   1,1.00000, -30.4861,   1
    99,'99          ', 115.0000,1,     0.000,     0.000,   1,   1,0.98643, -38.5193,   1
   100,'100         ', 115.0000,1,     0.000,     0.000,   1,   1,0.99832, -30.0681,   1
   102,'102         ', 115.0000,1,     0.000,     0.000,   1,   1,0.98973, -31.1899,   1
   103,'103         ', 115.0000,1,     0.000,     0.000,   1,   1,1.01689, -26.1056,   1
   104,'104         ', 115.0000,1,     0.000,     0.000,   1,   1,0.98639, -34.2295,   1
   105,'105         ', 115.0000,1,     0.000,     0.000,   1,   1,1.00474, -27.2600,   1
   107,'107         ', 115.0000,1,     0.000,     0.000,   1,   1,0.98472, -31.6214,   1
   108,'108         ', 115.0000,1,     0.000,     0.000,   1,   1,0.98999, -38.5819,   1
   109,'109         ', 115.0000,1,     0.000,     0.000,   1,   1,0.93976, -46.8239,   1
   110,'110         ', 115.0000,1,     0.000,     0.000,   1,   1,0.94133, -44.7250,   1
   112,'112         ', 115.0000,1,     0.000,     0.000,   1,   1,0.93729, -50.7247,   1
   113,'113         ', 115.0000,1,     0.000,     0.000,   1,   1,0.91586, -45.9998,   1
   114,'114         ', 115.0000,1,     0.000,     0.000,   1,   1,0.94062, -50.6091,   1
   115,'115         ', 115.0000,1,     0.000,     0.000,   2,   2,0.74885,  -0.8743,   1
   116,'116         ', 115.0000,1,     0.000,     0.000,   2,   2,1.02195,  11.2096,   1
   117,'117         ', 115.0000,1,     0.000,   438.750,   2,   2,0.72564,  24.4517,   1
   118,'118         ', 115.0000,1,     0.000,     0.000,   2,   2,0.72162,  26.5947,   1
   119,'119         ', 115.0000,1,     0.000,     0.000,   2,   2,1.04323,  49.5725,   1
   120,'120         ', 115.0000,1,     0.000,    74.250,   2,   2,0.97481,  41.5341,   1
   121,'121         ', 115.0000,1,     0.000,     0.000,   2,   2,0.67174,   4.6762,   1
   122,'122         ', 115.0000,1,     0.000,     0.000,   2,   2,0.74561,  -4.8789,   1
   123,'123         ', 115.0000,1,     0.000,     0.000,   2,   2,0.91658, -10.5598,   1
   124,'124         ', 115.0000,1,     0.000,     0.000,   2,   2,1.02325,   6.0877,   1
   125,'125         ', 115.0000,1,     0.000,     0.000,   2,   2,1.01021, -25.5364,   1
   126,'126         ', 115.0000,1,     0.000,     0.000,   2,   2,0.91457, -18.9279,   1
   127,'127         ', 230.0000,1,     0.000,     0.000,   2,   2,0.94527, -25.0738,   1
   128,'128         ', 230.0000,1,     0.000,     0.000,   2,   2,0.96518, -21.1427,   1
   129,'129         ', 230.0000,1,     0.000,     0.000,   2,   2,0.96435, -20.0287,   1
   130,'130         ', 230.0000,1,     0.000,     0.000,   2,   2,0.98887,  -3.1460,   1
   131,'131         ', 230.0000,1,     0.000,     0.000,   2,   2,0.96520,  -1.9152,   1
   132,'132         ', 230.0000,1,     0.000,     0.000,   2,   2,0.97824,  -5.9474,   1
   133,'133         ', 230.0000,1,     0.000,     0.000,   2,   2,0.97615, -24.3680,   1
   134,'134         ', 230.0000,1,     0.000,     0.000,   2,   2,0.98547, -23.6624,   1
   135,'135         ', 230.0000,1,     0.000,     0.000,   2,   2,0.98260, -23.6551,   1
   136,'136         ', 230.0000,1,     0.000,     0.000,   2,   2,1.02589, -15.6754,   1
   137,'137         ', 230.0000,1,     0.000,     0.000,   2,   2,1.03149, -24.1412,   1
   138,'138         ', 230.0000,1,     0.000,     0.000,   2,   2,1.05494, -37.0270,   1
   139,'139         ', 115.0000,1,     0.000,     0.000,   2,   2,0.99355, -26.5035,   1
   140,'140         ', 230.0000,1,     0.000,     0.000,   2,   2,1.01952, -26.4151,   1
   141,'141         ', 230.0000,1,     0.000,     0.000,   2,   2,1.05099, -21.2447,   1
   142,'142         ', 230.0000,1,     0.000,     0.000,   2,   2,0.97203, -23.3469,   1
   143,'143         ', 230.0000,1,     0.000,     0.000,   2,   2,1.04347, -12.6648,   1
   144,'144         ', 230.0000,1,     0.000,     0.000,   2,   2,1.00047, -15.0212,   1
   145,'145         ', 230.0000,1,     0.000,     0.000,   2,   2,0.97611, -19.6533,   1
   146,'146         ', 230.0000,1,     0.000,     0.000,   2,   2,1.05279, -14.3293,   1
   147,'147         ', 230.0000,1,     0.000,     0.000,   2,   2,1.05280,  -8.9961,   1
   148,'148         ', 230.0000,1,     0.000,     0.000,   2,   2,1.03907, -18.1189,   1
   149,'149         ', 230.0000,1,     0.000,     0.000,   2,   2,1.07349, -11.3943,   1
   150,'150         ', 230.0000,1,     0.000,     0.000,   2,   2,0.96464,  -1.5155,   1
   151,'151         ', 230.0000,1,     0.000,     0.000,   2,   2,0.98180,  -5.1222,   1
   152,'152         ', 230.0000,1,     0.000,     0.000,   2,   2,1.05350,  -5.5955,   1
   153,'153         ', 230.0000,1,     0.000,     0.000,   2,   2,1.04350,  -5.0702,   1
   154,'154         ', 115.0000,1,     0.000,    46.575,   2,   2,0.95623, -22.1990,   1
   155,'155         ', 230.0000,1,     0.000,     0.000,   2,   2,0.98173, -10.9875,   1
   156,'156         ', 115.0000,1,     0.000,     0.000,   2,   2,0.96298, -13.2960,   1
   157,'157         ', 230.0000,1,     0.000,     0.000,   2,   2,0.75866,  -1.3040,   1
   158,'158         ', 230.0000,1,     0.000,     0.000,   2,   2,0.82960,  -1.3835,   1
   159,'159         ', 230.0000,1,     0.000,     0.000,   2,   2,0.74149,   6.4255,   1
   160,'160         ', 230.0000,1,     0.000,     0.000,   2,   2,0.92550,   2.7194,   1
   161,'161         ', 230.0000,1,     0.000,     0.000,   2,   2,1.02171,  -7.4975,   1
   162,'162         ', 230.0000,1,     0.000,     0.000,   2,   2,0.92041,   7.0056,   1
   163,'163         ', 230.0000,1,     0.000,     0.000,   2,   2,0.99654, -17.5227,   1
   164,'164         ', 230.0000,1,     0.000,  -286.200,   2,   2,0.92140,  -6.8385,   1
   165,'165         ', 230.0000,1,     0.000,     0.000,   2,   2,0.94992,  18.9858,   1
   166,'166         ', 230.0000,1,     0.000,  -139.050,   2,   2,0.96443,  24.7636,   1
   167,'167         ', 230.0000,1,     0.000,     0.000,   2,   2,0.91377, -23.5529,   1
   168,'168         ', 230.0000,1,     0.000,     0.000,   2,   2,0.96529, -21.1824,   1
   169,'169         ', 230.0000,1,     0.000,     0.000,   2,   2,0.94260, -23.6108,   1
   170,'170         ', 115.0000,1,     0.000,     0.000,   2,   2,0.92897, -10.4102,   1
   171,'171         ', 115.0000,1,     0.000,     0.000,   2,   2,0.98285, -30.6152,   1
   172,'172         ', 115.0000,1,     0.000,     0.000,   2,   2,0.98949, -29.9465,   1
   173,'173         ', 115.0000,1,     0.000,    71.550,   2,   2,0.90303, -39.4830,   1
   174,'174         ', 115.0000,1,     0.000,     0.000,   2,   2,1.04558, -24.9917,   1
   175,'175         ', 115.0000,1,     0.000,     0.000,   2,   2,0.90764, -30.2342,   1
   176,'176         ', 115.0000,1,     0.000,     0.000,   2,   2,1.05219, -13.9220,   1
   177,'177         ', 115.0000,1,     0.000,     0.000,   2,   2,1.00769, -19.5901,   1
   178,'178         ', 115.0000,1,     0.000,     0.000,   2,   2,0.87620, -29.2361,   1
   179,'179         ', 115.0000,1,     0.000,    60.750,   2,   2,0.89764, -33.1485,   1
   180,'180         ', 115.0000,1,     0.000,     0.000,   2,   2,0.93291, -23.9603,   1
   181,'181         ', 230.0000,1,     0.000,     0.000,   2,   2,1.03815, -24.8575,   1
   182,'182         ', 230.0000,1,     0.000,     0.000,   2,   2,1.02052, -27.4340,   1
   183,'183         ', 115.0000,1,     0.000,     0.000,   2,   2,0.96785,  -9.6749,   1
   184,'184         ', 230.0000,1,     0.000,     0.000,   2,   2,1.02199, -22.0120,   1
   185,'185         ', 230.0000,1,     0.000,     0.000,   2,   2,1.05219, -18.6054,   1
   186,'186         ', 230.0000,1,     0.000,     0.000,   2,   2,1.06495, -19.6934,   1
   187,'187         ', 230.0000,1,     0.000,     0.000,   2,   2,1.06494, -21.0964,   1
   188,'188         ', 230.0000,1,     0.000,     0.000,   2,   2,1.04161, -23.9459,   1
   189,'189         ',  66.0000,1,     0.000,     0.000,   3,   3,0.97294, -46.7430,   1
   190,'190         ', 345.0000,1,     0.000,  -202.500,   3,   3,1.05506, -38.9508,   1
   191,'191         ', 230.0000,1,     0.000,     0.000,   3,   3,1.04335,  15.2922,   1
   192,'192         ', 230.0000,1,     0.000,     0.000,   3,   3,0.79791, -23.4081,   1
   193,'192         ',  66.0000,1,     0.000,     0.000,   3,   3,0.95860, -47.6388,   1
   194,'194         ', 345.0000,1,     0.000,     0.000,   3,   3,1.01931, -36.8266,   1
   195,'195         ', 345.0000,1,     0.000,     0.000,   3,   3,1.01247, -39.1318,   1
   196,'196         ', 115.0000,1,     0.000,     0.000,   3,   3,0.94487, -45.3649,   1
   197,'197         ', 115.0000,1,     0.000,     0.000,   3,   3,0.97346, -43.3192,   1
   198,'198         ', 115.0000,1,     0.000,     0.000,   3,   3,1.01498, -39.1623,   1
   199,'199         ', 115.0000,1,     0.000,     0.000,   3,   3,0.92345, -46.6395,   1
   200,'200         ', 115.0000,1,     0.000,     0.000,   3,   3,0.92711, -46.4739,   1
   201,'201         ',  66.0000,1,     0.000,     0.000,   1,   1,0.92533, -49.8931,   1
   202,'202         ',  66.0000,1,     0.000,     0.000,   3,   3,0.96627, -45.6046,   1
   203,'203         ', 115.0000,1,     0.000,     0.000,   3,   3,0.99286, -41.5172,   1
   204,'204         ',  66.0000,1,     0.000,     0.000,   3,   3,0.92295, -48.1336,   1
   205,'205         ',  66.0000,1,     0.000,     0.000,   3,   3,0.94508, -48.0490,   1
   206,'206         ',  66.0000,1,     0.000,     0.000,   3,   3,0.96594, -49.2145,   1
   207,'207         ',  66.0000,1,     0.000,     0.000,   1,   1,0.98465, -49.0760,   1
   208,'208         ',  66.0000,1,     0.000,     0.000,   3,   3,0.96416, -47.5978,   1
   209,'209         ',  66.0000,1,     0.000,     0.000,   3,   3,0.97769, -46.4128,   1
   210,'210         ', 115.0000,1,     0.000,     0.000,   3,   3,0.95983, -44.0601,   1
   211,'211         ', 115.0000,1,     0.000,     0.000,   3,   3,0.98329, -42.7969,   1
   212,'212         ', 138.0000,1,     0.000,     0.000,   3,   3,0.99435, -41.5824,   1
   213,'213         ',  16.5000,1,     0.000,     0.000,   3,   3,1.00999, -26.7259,   1
   214,'214         ', 138.0000,1,     0.000,     0.000,   3,   3,0.98566, -34.7476,   1
   215,'215         ', 138.0000,1,     0.000,     0.000,   3,   3,0.97069, -38.4463,   1
   216,'216         ', 138.0000,1,     0.000,     0.000,   3,   3,0.95036, -41.6055,   1
   217,'217         ', 138.0000,1,     0.000,     0.000,   3,   3,1.00688, -41.0468,   1
   218,'218         ', 138.0000,1,     0.000,     0.000,   3,   3,0.99282, -41.6309,   1
   219,'219         ', 345.0000,1,     0.000,     0.000,   3,   3,1.04314, -39.5726,   1
   220,'220         ', 138.0000,1,     0.000,     0.000,   3,   3,1.00798, -40.4494,   1
   221,'221         ', 138.0000,1,     0.000,     0.000,   3,   3,0.99996, -41.6303,   1
   222,'222         ',  20.0000,1,     0.000,     0.000,   3,   3,1.04998, -42.2825,   1
   223,'223         ', 138.0000,1,     0.000,     0.000,   3,   3,0.99289, -41.8935,   1
   224,'224         ', 230.0000,1,     0.000,     0.000,   3,   3,0.96829, -40.3254,   1
   225,'225         ', 230.0000,1,     0.000,     0.000,   3,   3,0.81339, -23.6660,   1
   226,'226         ', 230.0000,1,     0.000,     0.000,   3,   3,0.99252, -40.3488,   1
   227,'227         ',  27.0000,1,     0.000,     0.000,   3,   3,0.99996, -47.8284,   1
   228,'228         ', 138.0000,1,     0.000,     0.000,   3,   3,1.02353, -39.2860,   1
   229,'229         ', 138.0000,1,     0.000,     0.000,   3,   3,1.03470, -37.9170,   1
   230,'230         ',  20.0000,1,     0.000,     0.000,   3,   3,1.03999, -29.4809,   1
   231,'231         ', 345.0000,1,     0.000,  -405.000,   3,   3,1.04421, -39.6953,   1
   232,'232         ', 138.0000,1,     0.000,     0.000,   3,   3,1.02935, -42.4080,   1
   233,'233         ',  66.0000,1,     0.000,     0.000,   3,   3,0.99998, -46.0712,   1
   234,'234         ', 138.0000,1,     0.000,     0.000,   3,   3,1.02515, -39.2199,   1
   235,'235         ', 138.0000,1,     0.000,     0.000,   3,   3,1.00868, -39.4535,   1
   236,'236         ',  20.0000,1,     0.000,     0.000,   3,   3,1.01646, -31.6336,   1
   237,'237         ', 345.0000,1,     0.000,     0.000,   3,   3,1.04601, -39.5151,   1
   238,'238         ', 138.0000,1,     0.000,  -202.500,   3,   3,1.00996, -39.3479,   1
   239,'239         ', 138.0000,1,     0.000,     0.000,   3,   3,0.99999, -32.4298,   1
   240,'240         ', 230.0000,1,     0.000,  -189.000,   3,   3,1.01330, -38.2924,   1
   241,'241         ',  20.0000,1,     0.000,     0.000,   3,   3,1.05000, -33.2341,   1
   242,'242         ', 138.0000,1,     0.000,     0.000,   3,   3,0.99299, -34.7913,   1
   243,'243         ',  66.0000,1,     0.000,     0.000,   3,   3,1.00999, -37.1412,   1
   244,'244         ',  66.0000,1,     0.000,     0.000,   3,   3,0.98581, -38.4290,   1
   245,'245         ',  66.0000,1,     0.000,     0.000,   3,   3,0.95897, -39.3941,   1
   246,'246         ',  66.0000,1,     0.000,     0.000,   3,   3,0.94949, -40.5605,   1
   247,'247         ',  66.0000,1,     0.000,     0.000,   3,   3,0.95477, -40.4735,   1
   248,'248         ',  66.0000,1,     0.000,    61.560,   3,   3,0.95835, -45.3979,   1
   249,'249         ',  66.0000,1,     0.000,     0.000,   3,   3,0.95643, -45.9921,   1
   250,'250         ',  66.0000,1,     0.000,     0.000,   3,   3,1.01623, -43.4257,   1
   281,'281         ', 230.0000,1,     0.000,     0.000,   3,   3,1.01513, -38.1921,   1
   319,'319         ', 230.0000,1,     0.000,     0.000,   1,   1,1.00816,  -7.9718,   1
   320,'320         ', 115.0000,1,     0.000,     0.000,   1,   1,0.99629, -13.0508,   1
   322,'322         ', 115.0000,1,     0.000,     0.000,   1,   1,0.99244, -34.6192,   1
   323,'323         ', 230.0000,1,     0.000,     0.000,   1,   1,0.95724, -29.1677,   1
   324,'324         ', 115.0000,1,     0.000,     0.000,   1,   1,0.96784, -42.8589,   1
   526,'526         ', 115.0000,1,     0.000,     0.000,   1,   1,0.91189, -62.2209,   1
   528,'528         ', 115.0000,1,     0.000,     0.000,   1,   1,0.93188, -63.8772,   1
   531,'531         ', 115.0000,1,     0.000,     0.000,   1,   1,0.93854, -51.5288,   1
   552,'552         ', 115.0000,1,     0.000,     0.000,   1,   1,0.99411, -43.4638,   1
   562,'562         ', 230.0000,1,     0.000,     0.000,   1,   1,0.89866, -50.2710,   1
   609,'609         ', 115.0000,1,     0.000,     0.000,   1,   1,0.93511, -51.0361,   1
   664,'664         ', 345.0000,1,     0.000,     0.000,   3,   3,0.99065, -33.6162,   1
  1190,'1190        ',  86.0000,1,     0.000,     0.000,   1,   1,1.03272,  47.9369,   1
  1200,'1200        ',  86.0000,1,     0.000,     0.000,   1,   1,0.96327,  43.4290,   1
  1201,'1201        ', 115.0000,1,     0.000,     0.000,   2,   2,1.41865,  52.8718,   1
  2040,'2040        ', 115.0000,1,     0.000,     0.000,   3,   3,0.93849, -35.1714,   1
  7001,'7001        ',  13.8000,1,     0.000,     0.000,   1,   1,1.05068,   4.9339,   1
  7002,'7002        ',  13.8000,1,     0.000,     0.000,   1,   1,1.05069,   7.1529,   1
  7003,'7003        ',  13.8000,1,     0.000,     0.000,   1,   1,1.03224,   9.0420,   1
  7011,'7011        ',  13.8000,1,     0.000,     0.000,   1,   1,1.01449,  -3.3014,   1
  7012,'7012        ',  13.8000,1,     0.000,     0.000,   1,   1,1.05068,   5.8702,   1
  7017,'7017        ',  13.8000,1,     0.000,     0.000,   1,   1,1.05065, -24.3672,   1
  7023,'7023        ',  13.8000,1,     0.000,     0.000,   1,   1,1.05070,  -1.5135,   1
  7024,'7024        ',  13.8000,1,     0.000,     0.000,   1,   1,1.02899,   7.2716,   1
  7039,'7039        ',  20.0000,1,     0.000,     0.000,   1,   1,1.04997,  -5.2252,   1
  7044,'7044        ',  13.8000,1,     0.000,     0.000,   1,   1,1.01449, -29.1665,   1
  7049,'7049        ',  13.8000,1,     0.000,     0.000,   1,   1,1.05068,   0.5007,   1
  7055,'7055        ',  13.8000,1,     0.000,     0.000,   1,   1,0.99670, -19.2380,   1
  7057,'7057        ',  13.8000,1,     0.000,     0.000,   1,   1,1.02119, -16.3022,   1
  7061,'7061        ',  13.8000,1,     0.000,     0.000,   1,   1,1.01448, -10.2965,   1
  7062,'7062        ',  13.8000,1,     0.000,     0.000,   1,   1,1.00168,  -5.6647,   1
  7071,'7071        ',  13.8000,1,     0.000,     0.000,   1,   1,0.98929, -46.2510,   1
  7130,'7130        ',  13.8000,1,     0.000,     0.000,   2,   2,1.05064,  15.9051,   1
  7139,'7139        ',  13.8000,1,     0.000,     0.000,   2,   2,1.05066, -17.7431,   1
  7166,'7166        ',  13.8000,1,     0.000,     0.000,   2,   2,1.01446,  31.5623,   1
  9001,'9001        ', 115.0000,1,     0.000,     0.000,   1,   9,0.96900, -22.4741,   1
  9002,'9002        ',   6.6000,1,     0.000,     0.000,   1,   9,0.99450, -33.6876,   1
  9003,'9003        ',   6.6000,1,     0.189,     3.240,   1,   9,0.87049, -35.9270,   1
  9004,'9004        ',   6.6000,1,     0.000,     0.000,   1,   9,0.86037, -36.1521,   1
  9005,'9005        ', 115.0000,1,     0.000,     0.000,   1,   9,0.96995, -22.5960,   1
  9006,'9006        ',   6.6000,1,     0.000,     0.000,   1,   9,0.90642, -32.1917,   1
  9007,'9007        ',   6.6000,1,     0.000,     0.000,   1,   9,0.88555, -34.2582,   1
  9012,'9012        ',   6.6000,1,     0.000,     0.000,   1,   9,0.98828, -31.3311,   1
  9021,'9021        ',   6.6000,1,     0.000,     0.000,   1,   9,0.98663, -33.9847,   1
  9022,'9022        ',   0.6000,1,     0.108,     0.000,   1,   9,0.95358, -37.5031,   1
  9023,'9023        ',   6.6000,1,     0.000,     0.000,   1,   9,0.96745, -34.3997,   1
  9024,'9024        ',   0.6000,1,     0.094,     0.000,   1,   9,0.96131, -37.1826,   1
  9025,'9025        ',   0.6000,1,     0.027,     0.000,   1,   9,0.95379, -35.8583,   1
  9026,'9026        ',   0.6000,1,     0.027,     0.000,   1,   9,0.95496, -35.7351,   1
  9031,'9031        ',   0.6000,1,     0.135,     0.000,   1,   9,0.78257, -45.5234,   1
  9032,'9032        ',   0.6000,1,     0.094,     0.000,   1,   9,0.80553, -43.2738,   1
  9033,'9033        ',   0.6000,1,     0.135,     0.000,   1,   9,0.77673, -46.1399,   1
  9034,'9034        ',   0.6000,1,     0.108,     2.322,   1,   9,0.88361, -38.2885,   1
  9035,'9035        ',   0.6000,1,     0.122,     0.000,   1,   9,0.81687, -42.0635,   1
  9036,'9036        ',   2.3000,1,     0.000,     0.000,   1,   9,0.83210, -41.1825,   1
  9037,'9037        ',   0.6000,1,     0.135,     0.000,   1,   9,0.82817, -40.9897,   1
  9038,'9038        ',   0.6000,1,     0.189,     0.000,   1,   9,0.79637, -44.3537,   1
  9041,'9041        ',   0.6000,1,     0.068,     0.000,   1,   9,0.83950, -38.7649,   1
  9042,'9042        ',   0.6000,1,     0.054,     0.000,   1,   9,0.81763, -40.8487,   1
  9043,'9043        ',   2.3000,1,     0.000,     0.000,   1,   9,0.84112, -38.9724,   1
  9044,'9044        ',   6.6000,1,     0.000,     0.000,   1,   9,0.86376, -36.0867,   1
  9051,'9051        ',  13.8000,1,     0.000,     0.000,   1,   9,1.00000, -34.3216,   1
  9052,'9052        ',  13.8000,1,     0.000,     0.000,   1,   9,0.87968, -31.9017,   1
  9053,'9053        ',  13.8000,1,     0.000,     0.000,   1,   9,1.00000, -31.7034,   1
  9054,'9054        ',  13.8000,1,     0.000,     0.000,   1,   9,0.99999, -16.2116,   1
  9055,'9055        ',  13.8000,1,     0.000,     0.000,   1,   9,1.00000, -17.2230,   1
  9071,'9071        ',   0.6000,1,     0.068,     0.000,   1,   9,0.86072, -37.2853,   1
  9072,'9072        ',   0.6000,1,     0.068,     0.000,   1,   9,0.86872, -36.3379,   1
  9121,'9121        ',   6.6000,1,     0.000,     0.000,   1,   9,0.95698, -34.1694,   1
  9533,'9533        ',   2.3000,1,     0.135,     0.000,   1,   9,1.03944, -32.3976,   1
 10000,'10000       ',  13.8000,2,     0.000,     0.000,   1,   1,1.01530,  -6.8161,   1
 10001,'10001       ',  13.8000,2,     0.000,     0.000,   1,   1,1.02050,  -8.2256,   1
 10002,'10002       ',  13.8000,2,     0.000,     0.000,   1,   1,1.00100, -13.5837,   1
 10003,'10003       ',  13.8000,2,     0.000,     0.000,   1,   1,0.95830, -38.5986,   1
 10004,'10004       ',  13.8000,2,     0.000,     0.000,   1,   1,0.96320, -48.3327,   1
 10005,'10005       ',  20.0000,2,     0.000,     0.000,   1,   1,1.02500, -34.8984,   1
 10006,'10006       ',  18.0000,2,     0.000,     0.000,   1,   1,1.05200, -22.7223,   1
 10007,'10007       ',  24.0000,2,     0.000,     0.000,   1,   1,1.05200, -17.7863,   1
 10008,'10008       ',  15.5000,2,     0.000,     0.000,   1,   1,1.00000, -30.4856,   1
 10009,'10009       ',  18.0000,2,     0.000,     0.000,   1,   1,0.99000, -38.5809,   1
 10010,'10010       ',  26.0000,2,     0.000,     0.000,   2,   1,1.04350,  49.5863,   1
 10011,'10011       ',  24.0000,2,     0.000,     0.000,   2,   1,1.02330,   6.0895,   1
 10012,'10012       ',  13.8000,2,     0.000,     0.000,   2,   1,1.01030, -25.5364,   1
 10013,'10013       ',  26.0000,2,     0.000,     0.000,   2,   1,1.05500, -37.0334,   1
 10014,'10014       ',  24.0000,2,     0.000,     0.000,   2,   1,1.05100, -21.2427,   1
 10015,'10015       ',  26.0000,2,     0.000,     0.000,   2,   1,1.04350, -12.6598,   1
 10016,'10016       ',  15.5000,2,     0.000,     0.000,   2,   1,1.05280, -14.3287,   1
 10017,'10017       ',  24.0000,2,     0.000,     0.000,   2,   1,1.05280,  -8.9946,   1
 10018,'10018       ',  18.0000,2,     0.000,     0.000,   2,   1,1.07350, -11.3936,   1
 10019,'10019       ',  20.0000,2,     0.000,     0.000,   2,   1,1.05350,  -5.5928,   1
 10020,'10020       ',  24.0000,2,     0.000,     0.000,   2,   1,1.04350,  -5.0687,   1
 10021,'10021       ',  13.8000,2,     0.000,     0.000,   2,   1,0.96300, -13.2960,   1
 10022,'10022       ',  24.0000,2,     0.000,     0.000,   2,   1,0.92900, -10.4083,   1
 10023,'10023       ',  13.8000,2,     0.000,     0.000,   2,   1,0.98290, -30.6152,   1
 10024,'10024       ',  24.0000,2,     0.000,     0.000,   2,   1,1.05220, -13.9204,   1
 10025,'10025       ',  18.0000,2,     0.000,     0.000,   2,   1,1.00770, -19.5895,   1
 10026,'10026       ',  24.0000,2,     0.000,     0.000,   2,   1,1.05220, -18.6040,   1
 10027,'10027       ',  26.0000,2,     0.000,     0.000,   2,   1,1.06500, -19.6852,   1
 10028,'10028       ',  26.0000,2,     0.000,     0.000,   2,   1,1.06500, -21.0882,   1
 10029,'10029       ',  20.0000,2,     0.000,     0.000,   3,   1,1.05510, -38.9475,   1
 10030,'10030       ',  26.0000,2,     0.000,     0.000,   3,   1,1.04350,  15.3063,   1
 10031,'10031       ',  20.0000,2,     0.000,     0.000,   3,   1,1.01500, -39.1591,   1
 10032,'10032       ',  24.0000,2,     0.000,     0.000,   3,   1,1.01000, -26.7239,   1
 10033,'10033       ',  18.0000,2,     0.000,     0.000,   3,   1,1.00800, -40.4486,   1
 10034,'10034       ',  20.0000,2,     0.000,     0.000,   3,   1,1.00000, -41.6268,   1