0,   100.00, 30, 0, 1,  60.00     / PSS(R)E 30 RAW created by rawd30  WED, MAY 13 2020  14:37
 00/00/01                      100.0  0    0
 0
     1,'1           ', 115.0000,1,     0.000,     0.000,   1,   1,1.02021,   7.7693,   1
     2,'2           ', 115.0000,1,     0.000,     0.000,   1,   1,1.03124,   9.8564,   1
     3,'3           ', 230.0000,1,     0.000,     0.000,   1,   1,0.98782,   8.5579,   1
     4,'4           ', 345.0000,1,     0.000,     0.000,   1,   1,1.01870,   6.2088,   1
     5,'5           ', 115.0000,1,     0.000,     0.000,   1,   1,1.00901,   6.2132,   1
     6,'6           ', 115.0000,1,     0.000,     0.000,   1,   1,1.02524,   8.9577,   1
     7,'7           ', 230.0000,1,     0.000,     0.000,   1,   1,0.98457,   7.9949,   1
     8,'8           ', 115.0000,1,     0.000,     0.000,   1,   1,1.01529,   3.2241,   1
     9,'9           ', 115.0000,1,     0.000,     0.000,   1,   1,0.99509,   3.9239,   1
    10,'10          ', 230.0000,1,     0.000,     0.000,   1,   1,1.02050,   2.0996,   1
    11,'11          ', 115.0000,1,     0.000,     0.000,   1,   1,1.00286,   3.3971,   1
    12,'12          ', 230.0000,1,     0.000,     0.000,   1,   1,0.99078,   6.8000,   1
    13,'13          ', 115.0000,1,     0.000,     0.000,   1,   1,0.99480,  -0.2672,   1
    14,'14          ', 115.0000,1,     0.000,     0.000,   1,   1,0.98391,  -5.5125,   1
    15,'15          ', 115.0000,1,     0.000,     0.000,   1,   1,1.01849, -10.1239,   1
    16,'16          ', 345.0000,1,     0.000,     0.000,   1,   1,1.01205,  -2.7844,   1
    17,'17          ', 115.0000,1,     0.000,     0.000,   1,   1,1.05023, -15.8689,   1
    19,'19          ', 230.0000,1,     0.000,     0.000,   1,   1,0.97294,   1.7018,   1
    20,'20          ', 115.0000,1,     0.000,     0.000,   1,   1,1.00099,  -2.5816,   1
    21,'21          ', 230.0000,1,     0.000,     0.000,   1,   1,0.96898,   2.3717,   1
    22,'22          ', 115.0000,1,     0.000,     0.000,   1,   1,0.99198,  -1.9361,   1
    23,'23          ', 115.0000,1,     0.000,     0.000,   1,   1,1.04834,   5.3667,   1
    24,'24          ', 230.0000,1,     0.000,     0.000,   1,   1,1.00190,   7.8335,   1
    25,'25          ', 115.0000,1,     0.000,     0.000,   1,   1,1.01531,   2.3499,   1
    26,'26          ', 115.0000,1,     0.000,     0.000,   1,   1,0.98537,  -1.5314,   1
    27,'27          ', 115.0000,1,     0.000,     0.000,   1,   1,0.95995,  -5.4537,   1
    33,'33          ', 115.0000,1,     0.000,     0.000,   1,   1,1.00314, -14.3907,   1
    34,'34          ', 345.0000,1,     0.000,     0.000,   1,   1,1.02027,  -9.2900,   1
    35,'35          ', 115.0000,1,     0.000,     0.000,   1,   1,0.97169, -31.2726,   1
    36,'36          ', 230.0000,1,     0.000,     0.000,   1,   1,0.98741, -27.3515,   1
    37,'37          ', 115.0000,1,     0.000,     0.000,   1,   1,1.00084, -13.4058,   1
    38,'38          ', 115.0000,1,     0.000,     0.000,   1,   1,0.99826, -15.0713,   1
    39,'39          ', 345.0000,1,     0.000,     0.000,   1,   1,1.03583,  -6.6283,   1
    40,'40          ', 115.0000,1,     0.000,     0.000,   1,   1,1.00117, -15.3371,   1
    41,'41          ', 115.0000,1,     0.000,     0.000,   1,   1,1.00891, -12.4109,   1
    42,'42          ', 345.0000,1,     0.000,     0.000,   1,   1,1.02425,  -8.6740,   1
    43,'43          ', 115.0000,1,     0.000,     0.000,   1,   1,0.97480, -20.5158,   1
    44,'44          ', 115.0000,1,     0.000,     0.000,   1,   1,0.98518, -21.4210,   1
    45,'45          ', 230.0000,1,     0.000,     0.000,   1,   1,0.99847, -18.0416,   1
    46,'46          ', 345.0000,1,     0.000,     0.000,   1,   1,1.01084, -14.0562,   1
    47,'47          ', 115.0000,1,     0.000,     0.000,   1,   1,0.95134, -28.3712,   1
    48,'48          ', 115.0000,1,     0.000,     0.000,   1,   1,0.98390, -19.5369,   1
    49,'49          ', 115.0000,1,     0.000,     0.000,   1,   1,1.04264,  -3.1366,   1
    51,'51          ', 115.0000,1,     0.000,     0.000,   1,   1,1.00772,  -9.6504,   1
    52,'52          ', 115.0000,1,     0.000,     0.000,   1,   1,0.97414, -14.6104,   1
    53,'53          ', 115.0000,1,     0.000,     0.000,   1,   1,0.96912, -21.6081,   1
    54,'54          ', 115.0000,1,     0.000,     0.000,   1,   1,0.98115, -20.0156,   1
    55,'55          ', 115.0000,1,     0.000,     0.000,   1,   1,0.99704, -15.3016,   1
    57,'57          ', 115.0000,1,     0.000,     0.000,   1,   1,1.02537, -11.1622,   1
    58,'58          ', 115.0000,1,     0.000,     0.000,   1,   1,0.97761,  -9.2391,   1
    59,'59          ', 115.0000,1,     0.000,     0.000,   1,   1,0.96329,  -8.5266,   1
    60,'60          ', 230.0000,1,     0.000,     0.000,   1,   1,1.00674, -12.5926,   1
    61,'61          ', 115.0000,1,     0.000,     0.000,   1,   1,0.97872,  -6.3498,   1
    62,'62          ', 230.0000,1,     0.000,     0.000,   1,   1,1.00792,  -3.8179,   1
    63,'63          ', 115.0000,1,     0.000,     0.000,   1,   1,0.95829, -24.1496,   1
    64,'64          ', 230.0000,1,     0.000,     0.000,   1,   1,0.93994, -18.5234,   1
    69,'69          ', 115.0000,1,     0.000,     0.000,   1,   1,0.94496, -31.0725,   1
    70,'70          ', 115.0000,1,     0.000,     0.000,   1,   1,0.92648, -42.9134,   1
    71,'71          ', 115.0000,1,     0.000,     0.000,   1,   1,0.96430, -36.3340,   1
    72,'72          ', 115.0000,1,     0.000,     0.000,   1,   1,0.96025, -33.3806,   1
    73,'73          ', 115.0000,1,     0.000,     0.000,   1,   1,0.96021, -31.2967,   1
    74,'74          ', 230.0000,1,     0.000,     0.000,   1,   1,0.97491, -26.6907,   1
    76,'76          ', 115.0000,1,     0.000,     0.000,   1,   1,0.96319, -32.4580,   1
    77,'77          ', 115.0000,1,     0.000,     0.000,   1,   1,0.97814, -30.2403,   1
    78,'78          ', 115.0000,1,     0.000,     0.000,   1,   1,0.98417, -29.1427,   1
    79,'79          ', 115.0000,1,     0.000,     0.000,   1,   1,0.97122, -30.2607,   1
    80,'80          ', 115.0000,1,     0.000,     0.000,   1,   1,0.97864, -30.0463,   1
    81,'81          ', 345.0000,1,     0.000,     0.000,   1,   1,1.01625, -22.4778,   1
    84,'84          ', 115.0000,1,     0.000,     0.000,   1,   1,1.02498, -20.7425,   1
    85,'85          ', 230.0000,1,     0.000,     0.000,   1,   1,0.98035, -21.6997,   1
    86,'86          ', 230.0000,1,     0.000,     0.000,   1,   1,0.98032, -17.3197,   1
    87,'87          ', 230.0000,1,     0.000,     0.000,   1,   1,0.97825,  -9.2894,   1
    88,'88          ', 230.0000,1,     0.000,     0.000,   1,   1,0.99780, -25.2157,   1
    89,'89          ', 115.0000,1,     0.000,     0.000,   1,   1,1.02070, -13.3657,   1
    90,'90          ', 115.0000,1,     0.000,     0.000,   1,   1,1.01285, -13.4769,   1
    91,'91          ', 115.0000,1,     0.000,     0.000,   1,   1,1.05199, -11.3721,   1
    92,'92          ', 115.0000,1,     0.000,     0.000,   1,   1,1.05200,  -7.4500,   1
    94,'94          ', 115.0000,1,     0.000,     0.000,   1,   1,0.98210, -11.3451,   1
    97,'97          ', 115.0000,1,     0.000,     0.000,   1,   1,1.01354, -16.0766,   1
    98,'98          ', 115.0000,1,     0.000,     0.000,   1,   1,1.00000, -17.9054,   1
    99,'99          ', 115.0000,1,     0.000,     0.000,   1,   1,0.98791, -24.8925,   1
   100,'100         ', 115.0000,1,     0.000,     0.000,   1,   1,1.00195, -17.6223,   1
   102,'102         ', 115.0000,1,     0.000,     0.000,   1,   1,0.99487, -18.5743,   1
   103,'103         ', 115.0000,1,     0.000,     0.000,   1,   1,1.02289, -14.5905,   1
   104,'104         ', 115.0000,1,     0.000,     0.000,   1,   1,0.99077, -21.1930,   1
   105,'105         ', 115.0000,1,     0.000,     0.000,   1,   1,1.01382, -15.6663,   1
   107,'107         ', 115.0000,1,     0.000,     0.000,   1,   1,0.99844, -19.5048,   1
   108,'108         ', 115.0000,1,     0.000,     0.000,   1,   1,0.98999, -24.9154,   1
   109,'109         ', 115.0000,1,     0.000,     0.000,   1,   1,0.95747, -31.9478,   1
   110,'110         ', 115.0000,1,     0.000,     0.000,   1,   1,0.95715, -30.2646,   1
   112,'112         ', 115.0000,1,     0.000,     0.000,   1,   1,0.95446, -35.0931,   1
   113,'113         ', 115.0000,1,     0.000,     0.000,   1,   1,0.94409, -31.1418,   1
   114,'114         ', 115.0000,1,     0.000,     0.000,   1,   1,0.95721, -34.9563,   1
   115,'115         ', 115.0000,1,     0.000,     0.000,   2,   2,0.88216,   8.6544,   1
   116,'116         ', 115.0000,1,     0.000,     0.000,   2,   2,1.03275,  17.0698,   1
   117,'117         ', 115.0000,1,     0.000,   390.000,   2,   2,0.86601,  25.4997,   1
   118,'118         ', 115.0000,1,     0.000,     0.000,   2,   2,0.85995,  26.9129,   1
   119,'119         ', 115.0000,1,     0.000,     0.000,   2,   2,1.04334,  44.6094,   1
   120,'120         ', 115.0000,1,     0.000,    66.000,   2,   2,1.00893,  38.7120,   1
   121,'121         ', 115.0000,1,     0.000,     0.000,   2,   2,0.80577,  12.4441,   1
   122,'122         ', 115.0000,1,     0.000,     0.000,   2,   2,0.86752,   5.9711,   1
   123,'123         ', 115.0000,1,     0.000,     0.000,   2,   2,0.95810,   0.6641,   1
   124,'124         ', 115.0000,1,     0.000,     0.000,   2,   2,1.02327,  13.3090,   1
   125,'125         ', 115.0000,1,     0.000,     0.000,   2,   2,1.01025, -10.6557,   1
   126,'126         ', 115.0000,1,     0.000,     0.000,   2,   2,0.95904,  -5.1757,   1
   127,'127         ', 230.0000,1,     0.000,     0.000,   2,   2,0.97470, -10.5815,   1
   128,'128         ', 230.0000,1,     0.000,     0.000,   2,   2,0.98529,  -7.5500,   1
   129,'129         ', 230.0000,1,     0.000,     0.000,   2,   2,0.98497,  -6.6004,   1
   130,'130         ', 230.0000,1,     0.000,     0.000,   2,   2,1.00461,   7.0852,   1
   131,'131         ', 230.0000,1,     0.000,     0.000,   2,   2,0.97576,   7.7949,   1
   132,'132         ', 230.0000,1,     0.000,     0.000,   2,   2,0.99306,   4.7674,   1
   133,'133         ', 230.0000,1,     0.000,     0.000,   2,   2,0.98975, -10.2260,   1
   134,'134         ', 230.0000,1,     0.000,     0.000,   2,   2,1.00569,  -9.3443,   1
   135,'135         ', 230.0000,1,     0.000,     0.000,   2,   2,1.00331,  -9.3418,   1
   136,'136         ', 230.0000,1,     0.000,     0.000,   2,   2,1.03745,  -2.4649,   1
   137,'137         ', 230.0000,1,     0.000,     0.000,   2,   2,1.03813,  -9.9476,   1
   138,'138         ', 230.0000,1,     0.000,     0.000,   2,   2,1.05495, -21.3113,   1
   139,'139         ', 115.0000,1,     0.000,     0.000,   2,   2,1.00164, -12.0339,   1
   140,'140         ', 230.0000,1,     0.000,     0.000,   2,   2,1.02982, -11.9755,   1
   141,'141         ', 230.0000,1,     0.000,     0.000,   2,   2,1.05099,  -7.3886,   1
   142,'142         ', 230.0000,1,     0.000,     0.000,   2,   2,0.99203,  -9.5899,   1
   143,'143         ', 230.0000,1,     0.000,     0.000,   2,   2,1.04348,  -0.4494,   1
   144,'144         ', 230.0000,1,     0.000,     0.000,   2,   2,1.00846,  -3.5561,   1
   145,'145         ', 230.0000,1,     0.000,     0.000,   2,   2,0.99103,  -6.3245,   1
   146,'146         ', 230.0000,1,     0.000,     0.000,   2,   2,1.05279,  -1.4712,   1
   147,'147         ', 230.0000,1,     0.000,     0.000,   2,   2,1.05280,   3.2917,   1
   148,'148         ', 230.0000,1,     0.000,     0.000,   2,   2,1.04801,  -5.1721,   1
   149,'149         ', 230.0000,1,     0.000,     0.000,   2,   2,1.07349,   0.7635,   1
   150,'150         ', 230.0000,1,     0.000,     0.000,   2,   2,0.97590,   8.1375,   1
   151,'151         ', 230.0000,1,     0.000,     0.000,   2,   2,0.99386,   5.4214,   1
   152,'152         ', 230.0000,1,     0.000,     0.000,   2,   2,1.05350,   6.4727,   1
   153,'153         ', 230.0000,1,     0.000,     0.000,   2,   2,1.04350,   6.9467,   1
   154,'154         ', 115.0000,1,     0.000,    41.400,   2,   2,0.96157,  -8.2325,   1
   155,'155         ', 230.0000,1,     0.000,     0.000,   2,   2,0.99808,   1.6443,   1
   156,'156         ', 115.0000,1,     0.000,     0.000,   2,   2,0.96299,  -0.3403,   1
   157,'157         ', 230.0000,1,     0.000,     0.000,   2,   2,0.88146,   8.3673,   1
   158,'158         ', 230.0000,1,     0.000,     0.000,   2,   2,0.91735,   8.0334,   1
   159,'159         ', 230.0000,1,     0.000,     0.000,   2,   2,0.86937,  13.6168,   1
   160,'160         ', 230.0000,1,     0.000,     0.000,   2,   2,0.96549,  10.8720,   1
   161,'161         ', 230.0000,1,     0.000,     0.000,   2,   2,1.02811,   4.7543,   1
   162,'162         ', 230.0000,1,     0.000,     0.000,   2,   2,0.95419,  16.6416,   1
   163,'163         ', 230.0000,1,     0.000,     0.000,   2,   2,1.01574,  -4.1021,   1
   164,'164         ', 230.0000,1,     0.000,  -254.400,   2,   2,0.94991,   5.1157,   1
   165,'165         ', 230.0000,1,     0.000,     0.000,   2,   2,0.97385,  26.6901,   1
   166,'166         ', 230.0000,1,     0.000,  -123.600,   2,   2,0.97993,  31.6297,   1
   167,'167         ', 230.0000,1,     0.000,     0.000,   2,   2,0.94305,  -9.6510,   1
   168,'168         ', 230.0000,1,     0.000,     0.000,   2,   2,0.98536,  -7.5824,   1
   169,'169         ', 230.0000,1,     0.000,     0.000,   2,   2,0.96592,  -9.5959,   1
   170,'170         ', 115.0000,1,     0.000,     0.000,   2,   2,0.92898,   0.8434,   1
   171,'171         ', 115.0000,1,     0.000,     0.000,   2,   2,0.98287, -15.6846,   1
   172,'172         ', 115.0000,1,     0.000,     0.000,   2,   2,1.00644, -15.0152,   1
   173,'173         ', 115.0000,1,     0.000,    63.600,   2,   2,0.94276, -22.9180,   1
   174,'174         ', 115.0000,1,     0.000,     0.000,   2,   2,1.05387, -10.6707,   1
   175,'175         ', 115.0000,1,     0.000,     0.000,   2,   2,0.93893, -15.3192,   1
   176,'176         ', 115.0000,1,     0.000,     0.000,   2,   2,1.05219,  -0.8536,   1
   177,'177         ', 115.0000,1,     0.000,     0.000,   2,   2,1.00769,  -5.8168,   1
   178,'178         ', 115.0000,1,     0.000,     0.000,   2,   2,0.90576, -14.3935,   1
   179,'179         ', 115.0000,1,     0.000,    54.000,   2,   2,0.93234, -17.7942,   1
   180,'180         ', 115.0000,1,     0.000,     0.000,   2,   2,0.95455,  -9.9880,   1
   181,'181         ', 230.0000,1,     0.000,     0.000,   2,   2,1.04324, -10.5680,   1
   182,'182         ', 230.0000,1,     0.000,     0.000,   2,   2,1.03117, -12.8582,   1
   183,'183         ', 115.0000,1,     0.000,     0.000,   2,   2,0.96976,   2.8610,   1
   184,'184         ', 230.0000,1,     0.000,     0.000,   2,   2,1.03091,  -7.8677,   1
   185,'185         ', 230.0000,1,     0.000,     0.000,   2,   2,1.05219,  -4.8309,   1
   186,'186         ', 230.0000,1,     0.000,     0.000,   2,   2,1.06496,  -5.9951,   1
   187,'187         ', 230.0000,1,     0.000,     0.000,   2,   2,1.06495,  -7.2317,   1
   188,'188         ', 230.0000,1,     0.000,     0.000,   2,   2,1.04598,  -9.7641,   1
   189,'189         ',  66.0000,1,     0.000,     0.000,   3,   3,0.98446, -31.0347,   1
   190,'190         ', 345.0000,1,     0.000,  -180.000,   3,   3,1.05508, -24.0485,   1
   191,'191         ', 230.0000,1,     0.000,     0.000,   3,   3,1.04339,  19.7719,   1
   192,'192         ', 230.0000,1,     0.000,     0.000,   3,   3,0.87635, -11.0072,   1
   193,'192         ',  66.0000,1,     0.000,     0.000,   3,   3,0.97325, -31.6796,   1
   194,'194         ', 345.0000,1,     0.000,     0.000,   3,   3,1.03438, -22.5462,   1
   195,'195         ', 345.0000,1,     0.000,     0.000,   3,   3,1.02436, -24.5148,   1
   196,'196         ', 115.0000,1,     0.000,     0.000,   3,   3,0.95615, -30.0075,   1
   197,'197         ', 115.0000,1,     0.000,     0.000,   3,   3,0.98146, -28.1425,   1
   198,'198         ', 115.0000,1,     0.000,     0.000,   3,   3,1.01499, -24.4025,   1
   199,'199         ', 115.0000,1,     0.000,     0.000,   3,   3,0.93677, -30.9929,   1
   200,'200         ', 115.0000,1,     0.000,     0.000,   3,   3,0.93995, -30.8302,   1
   201,'201         ',  66.0000,1,     0.000,     0.000,   1,   1,0.94572, -33.5836,   1
   202,'202         ',  66.0000,1,     0.000,     0.000,   3,   3,0.97761, -30.1347,   1
   203,'203         ', 115.0000,1,     0.000,     0.000,   3,   3,0.99772, -26.5195,   1
   204,'204         ',  66.0000,1,     0.000,     0.000,   3,   3,0.94543, -31.7710,   1
   205,'205         ',  66.0000,1,     0.000,     0.000,   3,   3,0.96306, -31.9121,   1
   206,'206         ',  66.0000,1,     0.000,     0.000,   3,   3,0.98122, -33.4158,   1
   207,'207         ',  66.0000,1,     0.000,     0.000,   1,   1,0.99781, -33.4710,   1
   208,'208         ',  66.0000,1,     0.000,     0.000,   3,   3,0.97765, -31.7490,   1
   209,'209         ',  66.0000,1,     0.000,     0.000,   3,   3,0.98811, -30.7456,   1
   210,'210         ', 115.0000,1,     0.000,     0.000,   3,   3,0.96849, -28.7640,   1
   211,'211         ', 115.0000,1,     0.000,     0.000,   3,   3,0.99200, -27.6807,   1
   212,'212         ', 138.0000,1,     0.000,     0.000,   3,   3,1.00347, -26.6266,   1
   213,'213         ',  16.5000,1,     0.000,     0.000,   3,   3,1.00999, -13.2928,   1
   214,'214         ', 138.0000,1,     0.000,     0.000,   3,   3,0.98849, -20.4085,   1
   215,'215         ', 138.0000,1,     0.000,     0.000,   3,   3,0.97799, -23.6935,   1
   216,'216         ', 138.0000,1,     0.000,     0.000,   3,   3,0.96155, -26.4434,   1
   217,'217         ', 138.0000,1,     0.000,     0.000,   3,   3,1.01353, -25.9327,   1
   218,'218         ', 138.0000,1,     0.000,     0.000,   3,   3,0.99942, -26.4351,   1
   219,'219         ', 345.0000,1,     0.000,     0.000,   3,   3,1.04887, -24.6709,   1
   220,'220         ', 138.0000,1,     0.000,     0.000,   3,   3,1.00799, -25.2991,   1
   221,'221         ', 138.0000,1,     0.000,     0.000,   3,   3,0.99997, -26.2161,   1
   222,'222         ',  20.0000,1,     0.000,     0.000,   3,   3,1.04998, -27.0250,   1
   223,'223         ', 138.0000,1,     0.000,     0.000,   3,   3,0.99460, -26.4560,   1
   224,'224         ', 230.0000,1,     0.000,     0.000,   3,   3,0.98570, -25.0553,   1
   225,'225         ', 230.0000,1,     0.000,     0.000,   3,   3,0.88741, -11.2584,   1
   226,'226         ', 230.0000,1,     0.000,     0.000,   3,   3,1.00607, -25.1383,   1
   227,'227         ',  27.0000,1,     0.000,     0.000,   3,   3,0.99997, -31.9137,   1
   228,'228         ', 138.0000,1,     0.000,     0.000,   3,   3,1.03181, -24.3379,   1
   229,'229         ', 138.0000,1,     0.000,     0.000,   3,   3,1.04126, -23.1306,   1
   230,'230         ',  20.0000,1,     0.000,     0.000,   3,   3,1.03999, -15.6701,   1
   231,'231         ', 345.0000,1,     0.000,  -360.000,   3,   3,1.04847, -24.7385,   1
   232,'232         ', 138.0000,1,     0.000,     0.000,   3,   3,1.03482, -27.1249,   1
   233,'233         ',  66.0000,1,     0.000,     0.000,   3,   3,0.99998, -30.3370,   1
   234,'234         ', 138.0000,1,     0.000,     0.000,   3,   3,1.03113, -24.2709,   1
   235,'235         ', 138.0000,1,     0.000,     0.000,   3,   3,1.00903, -24.4286,   1
   236,'236         ',  20.0000,1,     0.000,     0.000,   3,   3,1.01647, -17.5648,   1
   237,'237         ', 345.0000,1,     0.000,     0.000,   3,   3,1.05051, -24.5895,   1
   238,'238         ', 138.0000,1,     0.000,  -180.000,   3,   3,1.00997, -24.3298,   1
   239,'239         ', 138.0000,1,     0.000,     0.000,   3,   3,0.99999, -18.1786,   1
   240,'240         ', 230.0000,1,     0.000,  -168.000,   3,   3,1.01776, -23.4658,   1
   241,'241         ',  20.0000,1,     0.000,     0.000,   3,   3,1.05000, -19.0193,   1
   242,'242         ', 138.0000,1,     0.000,     0.000,   3,   3,0.99299, -20.4264,   1
   243,'243         ',  66.0000,1,     0.000,     0.000,   3,   3,1.00999, -22.4924,   1
   244,'244         ',  66.0000,1,     0.000,     0.000,   3,   3,0.98858, -23.6360,   1
   245,'245         ',  66.0000,1,     0.000,     0.000,   3,   3,0.96427, -24.4911,   1
   246,'246         ',  66.0000,1,     0.000,     0.000,   3,   3,0.95631, -25.5154,   1
   247,'247         ',  66.0000,1,     0.000,     0.000,   3,   3,0.96104, -25.4531,   1
   248,'248         ',  66.0000,1,     0.000,    54.720,   3,   3,0.96637, -29.8334,   1
   249,'249         ',  66.0000,1,     0.000,     0.000,   3,   3,0.96501, -30.3528,   1
   250,'250         ',  66.0000,1,     0.000,     0.000,   3,   3,1.01816, -28.0963,   1
   281,'281         ', 230.0000,1,     0.000,     0.000,   3,   3,1.01938, -23.3774,   1
   319,'319         ', 230.0000,1,     0.000,     0.000,   1,   1,1.01166,   2.3425,   1
   320,'320         ', 115.0000,1,     0.000,     0.000,   1,   1,1.00456,  -2.1420,   1
   322,'322         ', 115.0000,1,     0.000,     0.000,   1,   1,0.99624, -21.5389,   1
   323,'323         ', 230.0000,1,     0.000,     0.000,   1,   1,0.96774, -16.7017,   1
   324,'324         ', 115.0000,1,     0.000,     0.000,   1,   1,0.97094, -28.7106,   1
   526,'526         ', 115.0000,1,     0.000,     0.000,   1,   1,0.92752, -44.6508,   1
   528,'528         ', 115.0000,1,     0.000,     0.000,   1,   1,0.95163, -45.9551,   1
   531,'531         ', 115.0000,1,     0.000,     0.000,   1,   1,0.94904, -35.3713,   1
   552,'552         ', 115.0000,1,     0.000,     0.000,   1,   1,0.99785, -28.3109,   1
   562,'562         ', 230.0000,1,     0.000,     0.000,   1,   1,0.93898, -34.2733,   1
   609,'609         ', 115.0000,1,     0.000,     0.000,   1,   1,0.94609, -34.9360,   1
   664,'664         ', 345.0000,1,     0.000,     0.000,   3,   3,1.01055, -19.7933,   1
  1190,'1190        ',  86.0000,1,     0.000,     0.000,   1,   1,1.03405,  43.1575,   1
  1200,'1200        ',  86.0000,1,     0.000,     0.000,   1,   1,0.99911,  40.2810,   1
  1201,'1201        ', 115.0000,1,     0.000,     0.000,   2,   2,1.28681,  50.5336,   1
  2040,'2040        ', 115.0000,1,     0.000,     0.000,   3,   3,0.95084, -19.7383,   1
  7001,'7001        ',  13.8000,1,     0.000,     0.000,   1,   1,1.05068,  13.6786,   1
  7002,'7002        ',  13.8000,1,     0.000,     0.000,   1,   1,1.05069,  15.6195,   1
  7003,'7003        ',  13.8000,1,     0.000,     0.000,   1,   1,1.03225,  17.2624,   1
  7011,'7011        ',  13.8000,1,     0.000,     0.000,   1,   1,1.01449,   6.4649,   1
  7012,'7012        ',  13.8000,1,     0.000,     0.000,   1,   1,1.05068,  14.5533,   1
  7017,'7017        ',  13.8000,1,     0.000,     0.000,   1,   1,1.05066, -12.6368,   1
  7023,'7023        ',  13.8000,1,     0.000,     0.000,   1,   1,1.05070,   8.0458,   1
  7024,'7024        ',  13.8000,1,     0.000,     0.000,   1,   1,1.02899,  15.8275,   1
  7039,'7039        ',  20.0000,1,     0.000,     0.000,   1,   1,1.04998,   3.1349,   1
  7044,'7044        ',  13.8000,1,     0.000,     0.000,   1,   1,1.01449, -17.0211,   1
  7049,'7049        ',  13.8000,1,     0.000,     0.000,   1,   1,1.05069,   0.5023,   1
  7055,'7055        ',  13.8000,1,     0.000,     0.000,   1,   1,0.99670,  -9.4933,   1
  7057,'7057        ',  13.8000,1,     0.000,     0.000,   1,   1,1.02119,  -5.6041,   1
  7061,'7061        ',  13.8000,1,     0.000,     0.000,   1,   1,1.01448,   0.3125,   1
  7062,'7062        ',  13.8000,1,     0.000,     0.000,   1,   1,1.00168,   4.5989,   1
  7071,'7071        ',  13.8000,1,     0.000,     0.000,   1,   1,0.98929, -30.7648,   1
  7130,'7130        ',  13.8000,1,     0.000,     0.000,   2,   2,1.05065,  23.6952,   1
  7139,'7139        ',  13.8000,1,     0.000,     0.000,   2,   2,1.05067,  -4.3096,   1
  7166,'7166        ',  13.8000,1,     0.000,     0.000,   2,   2,1.01447,  37.5794,   1
  9001,'9001        ', 115.0000,1,     0.000,     0.000,   1,   9,0.99712, -13.4310,   1
  9002,'9002        ',   6.6000,1,     0.000,     0.000,   1,   9,0.99450, -22.9236,   1
  9003,'9003        ',   6.6000,1,     0.168,     2.880,   1,   9,0.93440, -24.2828,   1
  9004,'9004        ',   6.6000,1,     0.000,     0.000,   1,   9,0.92610, -24.4612,   1
  9005,'9005        ', 115.0000,1,     0.000,     0.000,   1,   9,0.99738, -13.5254,   1
  9006,'9006        ',   6.6000,1,     0.000,     0.000,   1,   9,0.96137, -21.3321,   1
  9007,'9007        ',   6.6000,1,     0.000,     0.000,   1,   9,0.94559, -22.9723,   1
  9012,'9012        ',   6.6000,1,     0.000,     0.000,   1,   9,0.99646, -20.9252,   1
  9021,'9021        ',   6.6000,1,     0.000,     0.000,   1,   9,0.98753, -23.1880,   1
  9022,'9022        ',   0.6000,1,     0.096,     0.000,   1,   9,0.95849, -26.2977,   1
  9023,'9023        ',   6.6000,1,     0.000,     0.000,   1,   9,0.97058, -23.5578,   1
  9024,'9024        ',   0.6000,1,     0.084,     0.000,   1,   9,0.96531, -26.0182,   1
  9025,'9025        ',   0.6000,1,     0.024,     0.000,   1,   9,0.95853, -24.8442,   1
  9026,'9026        ',   0.6000,1,     0.024,     0.000,   1,   9,0.95956, -24.7358,   1
  9031,'9031        ',   0.6000,1,     0.120,     0.000,   1,   9,0.86601, -31.5040,   1
  9032,'9032        ',   0.6000,1,     0.084,     0.000,   1,   9,0.88299, -29.8638,   1
  9033,'9033        ',   0.6000,1,     0.120,     0.000,   1,   9,0.86185, -31.9445,   1
  9034,'9034        ',   0.6000,1,     0.096,     2.064,   1,   9,0.94899, -26.1346,   1
  9035,'9035        ',   0.6000,1,     0.108,     0.000,   1,   9,0.89159, -28.9676,   1
  9036,'9036        ',   2.3000,1,     0.000,     0.000,   1,   9,0.90369, -28.2877,   1
  9037,'9037        ',   0.6000,1,     0.120,     0.000,   1,   9,0.90036, -28.1632,   1
  9038,'9038        ',   0.6000,1,     0.168,     0.000,   1,   9,0.87621, -30.6619,   1
  9041,'9041        ',   0.6000,1,     0.060,     0.000,   1,   9,0.90911, -26.4656,   1
  9042,'9042        ',   0.6000,1,     0.048,     0.000,   1,   9,0.89175, -28.0387,   1
  9043,'9043        ',   2.3000,1,     0.000,     0.000,   1,   9,0.91050, -26.6123,   1
  9044,'9044        ',   6.6000,1,     0.000,     0.000,   1,   9,0.92888, -24.4092,   1
  9051,'9051        ',  13.8000,1,     0.000,     0.000,   1,   9,1.00000, -23.5942,   1
  9052,'9052        ',  13.8000,1,     0.000,     0.000,   1,   9,0.93629, -21.0719,   1
  9053,'9053        ',  13.8000,1,     0.000,     0.000,   1,   9,1.00000, -21.3399,   1
  9054,'9054        ',  13.8000,1,     0.000,     0.000,   1,   9,1.00000,  -8.0042,   1
  9055,'9055        ',  13.8000,1,     0.000,     0.000,   1,   9,1.00000,  -8.8781,   1
  9071,'9071        ',   0.6000,1,     0.060,     0.000,   1,   9,0.92524, -25.3295,   1
  9072,'9072        ',   0.6000,1,     0.060,     0.000,   1,   9,0.93172, -24.5955,   1
  9121,'9121        ',   6.6000,1,     0.000,     0.000,   1,   9,0.96913, -23.3957,   1
  9533,'9533        ',   2.3000,1,     0.120,     0.000,   1,   9,1.03990, -21.9568,   1
 10000,'10000       ',  13.8000,2,     0.000,     0.000,   1,   1,1.01530,   3.2240,   1
 10001,'10001       ',  13.8000,2,     0.000,     0.000,   1,   1,1.02050,   2.0996,   1
 10002,'10002       ',  13.8000,2,     0.000,     0.000,   1,   1,1.00100,  -2.5816,   1
 10003,'10003       ',  13.8000,2,     0.000,     0.000,   1,   1,0.95830, -24.1496,   1
 10004,'10004       ',  13.8000,2,     0.000,     0.000,   1,   1,0.96320, -32.4580,   1
 10005,'10005       ',  20.0000,2,     0.000,     0.000,   1,   1,1.02500, -20.7400,   1
 10006,'10006       ',  18.0000,2,     0.000,     0.000,   1,   1,1.05200, -11.3711,   1
 10007,'10007       ',  24.0000,2,     0.000,     0.000,   1,   1,1.05200,  -7.4482,   1
 10008,'10008       ',  15.5000,2,     0.000,     0.000,   1,   1,1.00000, -17.9049,   1
 10009,'10009       ',  18.0000,2,     0.000,     0.000,   1,   1,0.99000, -24.9146,   1
 10010,'10010       ',  26.0000,2,     0.000,     0.000,   2,   1,1.04350,  44.6217,   1
 10011,'10011       ',  24.0000,2,     0.000,     0.000,   2,   1,1.02330,  13.3106,   1
 10012,'10012       ',  13.8000,2,     0.000,     0.000,   2,   1,1.01030, -10.6557,   1
 10013,'10013       ',  26.0000,2,     0.000,     0.000,   2,   1,1.05500, -21.3170,   1
 10014,'10014       ',  24.0000,2,     0.000,     0.000,   2,   1,1.05100,  -7.3869,   1
 10015,'10015       ',  26.0000,2,     0.000,     0.000,   2,   1,1.04350,  -0.4449,   1
 10016,'10016       ',  15.5000,2,     0.000,     0.000,   2,   1,1.05280,  -1.4707,   1
 10017,'10017       ',  24.0000,2,     0.000,     0.000,   2,   1,1.05280,   3.2930,   1
 10018,'10018       ',  18.0000,2,     0.000,     0.000,   2,   1,1.07350,   0.7642,   1
 10019,'10019       ',  20.0000,2,     0.000,     0.000,   2,   1,1.05350,   6.4751,   1
 10020,'10020       ',  24.0000,2,     0.000,     0.000,   2,   1,1.04350,   6.9481,   1
 10021,'10021       ',  13.8000,2,     0.000,     0.000,   2,   1,0.96300,  -0.3403,   1
 10022,'10022       ',  24.0000,2,     0.000,     0.000,   2,   1,0.92900,   0.8451,   1
 10023,'10023       ',  13.8000,2,     0.000,     0.000,   2,   1,0.98290, -15.6846,   1
 10024,'10024       ',  24.0000,2,     0.000,     0.000,   2,   1,1.05220,  -0.8522,   1
 10025,'10025       ',  18.0000,2,     0.000,     0.000,   2,   1,1.00770,  -5.8162,   1
 10026,'10026       ',  24.0000,2,     0.000,     0.000,   2,   1,1.05220,  -4.8296,   1
 10027,'10027       ',  26.0000,2,     0.000,     0.000,   2,   1,1.06500,  -5.9878,   1
 10028,'10028       ',  26.0000,2,     0.000,     0.000,   2,   1,1.06500,  -7.2243,   1
 10029,'10029       ',  20.0000,2,     0.000,     0.000,   3,   1,1.05510, -24.0455,   1
 10030,'10030       ',  26.0000,2,     0.000,     0.000,   3,   1,1.04350,  19.7845,   1
 10031,'10031       ',  20.0000,2,     0.000,     0.000,   3,   1,1.01500, -24.3997,   1
 10032,'10032       ',  24.0000,2,     0.000,     0.000,   3,   1,1.01000, -13.2909,   1
 10033,'10033       ',  18.0000,2,     0.000,     0.000,   3,   1,1.00800, -25.2984,   1
 10034,'10034       ',  20.0000,2,     0.000,     0.000,   3,   1,1.00000, -26.2129,   1