0,   100.00, 30, 0, 1,  60.00     / PSS(R)E 30 RAW created by rawd30  WED, MAY 13 2020  15:14
 00/00/01                      100.0  0    0
 0
     1,'1           ', 115.0000,1,     0.000,     0.000,   1,   1,1.01105,   2.8155,   1
     2,'2           ', 115.0000,1,     0.000,     0.000,   1,   1,1.02924,   5.1043,   1
     3,'3           ', 230.0000,1,     0.000,     0.000,   1,   1,0.98075,   6.7106,   1
     4,'4           ', 345.0000,1,     0.000,     0.000,   1,   1,1.00874,   4.1484,   1
     5,'5           ', 115.0000,1,     0.000,     0.000,   1,   1,0.99745,   1.0748,   1
     6,'6           ', 115.0000,1,     0.000,     0.000,   1,   1,1.02187,   4.5588,   1
     7,'7           ', 230.0000,1,     0.000,     0.000,   1,   1,0.97739,   5.9057,   1
     8,'8           ', 115.0000,1,     0.000,     0.000,   1,   1,1.01528,  -3.3357,   1
     9,'9           ', 115.0000,1,     0.000,     0.000,   1,   1,0.98339,  -2.6095,   1
    10,'10          ', 230.0000,1,     0.000,     0.000,   1,   1,1.02049,  -4.2047,   1
    11,'11          ', 115.0000,1,     0.000,     0.000,   1,   1,0.99793,  -3.9671,   1
    12,'12          ', 230.0000,1,     0.000,     0.000,   1,   1,0.98156,   2.5203,   1
    13,'13          ', 115.0000,1,     0.000,     0.000,   1,   1,0.98985,  -8.6475,   1
    14,'14          ', 115.0000,1,     0.000,     0.000,   1,   1,0.96323, -13.6488,   1
    15,'15          ', 115.0000,1,     0.000,     0.000,   1,   1,0.99859, -18.7346,   1
    16,'16          ', 345.0000,1,     0.000,     0.000,   1,   1,0.99349,  -5.7235,   1
    17,'17          ', 115.0000,1,     0.000,     0.000,   1,   1,1.01657, -29.4756,   1
    19,'19          ', 230.0000,1,     0.000,     0.000,   1,   1,0.95586,  -5.0706,   1
    20,'20          ', 115.0000,1,     0.000,     0.000,   1,   1,1.00097, -11.5829,   1
    21,'21          ', 230.0000,1,     0.000,     0.000,   1,   1,0.95779,  -4.8401,   1
    22,'22          ', 115.0000,1,     0.000,     0.000,   1,   1,0.98610, -11.5964,   1
    23,'23          ', 115.0000,1,     0.000,     0.000,   1,   1,1.04373,  -4.9954,   1
    24,'24          ', 230.0000,1,     0.000,     0.000,   1,   1,0.99655,  -1.3519,   1
    25,'25          ', 115.0000,1,     0.000,     0.000,   1,   1,1.00208,  -8.5160,   1
    26,'26          ', 115.0000,1,     0.000,     0.000,   1,   1,0.96576, -12.8941,   1
    27,'27          ', 115.0000,1,     0.000,     0.000,   1,   1,0.93625, -16.9251,   1
    33,'33          ', 115.0000,1,     0.000,     0.000,   1,   1,0.98465, -17.9271,   1
    34,'34          ', 345.0000,1,     0.000,     0.000,   1,   1,1.00473, -10.3365,   1
    35,'35          ', 115.0000,1,     0.000,     0.000,   1,   1,0.96692, -26.0238,   1
    36,'36          ', 230.0000,1,     0.000,     0.000,   1,   1,0.97075, -19.7628,   1
    37,'37          ', 115.0000,1,     0.000,     0.000,   1,   1,0.98611, -17.5830,   1
    38,'38          ', 115.0000,1,     0.000,     0.000,   1,   1,0.97883, -18.7671,   1
    39,'39          ', 345.0000,1,     0.000,     0.000,   1,   1,1.02445,  -7.4559,   1
    40,'40          ', 115.0000,1,     0.000,     0.000,   1,   1,0.98236, -19.8073,   1
    41,'41          ', 115.0000,1,     0.000,     0.000,   1,   1,0.99284, -15.2691,   1
    42,'42          ', 345.0000,1,     0.000,     0.000,   1,   1,1.01040,  -9.4245,   1
    43,'43          ', 115.0000,1,     0.000,     0.000,   1,   1,0.95011, -23.5829,   1
    44,'44          ', 115.0000,1,     0.000,     0.000,   1,   1,0.96601, -21.5709,   1
    45,'45          ', 230.0000,1,     0.000,     0.000,   1,   1,0.97919, -16.0372,   1
    46,'46          ', 345.0000,1,     0.000,     0.000,   1,   1,0.99864, -11.7120,   1
    47,'47          ', 115.0000,1,     0.000,     0.000,   1,   1,0.92291, -28.7102,   1
    48,'48          ', 115.0000,1,     0.000,     0.000,   1,   1,0.96207, -28.2095,   1
    49,'49          ', 115.0000,1,     0.000,     0.000,   1,   1,1.03749,  -4.0681,   1
    51,'51          ', 115.0000,1,     0.000,     0.000,   1,   1,0.98922, -11.9308,   1
    52,'52          ', 115.0000,1,     0.000,     0.000,   1,   1,0.94430, -18.1869,   1
    53,'53          ', 115.0000,1,     0.000,     0.000,   1,   1,0.94230, -24.8371,   1
    54,'54          ', 115.0000,1,     0.000,     0.000,   1,   1,0.95815, -22.3568,   1
    55,'55          ', 115.0000,1,     0.000,     0.000,   1,   1,0.97504, -18.8844,   1
    57,'57          ', 115.0000,1,     0.000,     0.000,   1,   1,1.00987, -15.6303,   1
    58,'58          ', 115.0000,1,     0.000,     0.000,   1,   1,0.95417, -12.6846,   1
    59,'59          ', 115.0000,1,     0.000,     0.000,   1,   1,0.93743, -11.5860,   1
    60,'60          ', 230.0000,1,     0.000,     0.000,   1,   1,0.98621,  -9.7055,   1
    61,'61          ', 115.0000,1,     0.000,     0.000,   1,   1,0.95855,  -8.6214,   1
    62,'62          ', 230.0000,1,     0.000,     0.000,   1,   1,0.99127,   0.4315,   1
    63,'63          ', 115.0000,1,     0.000,     0.000,   1,   1,0.95829, -21.4910,   1
    64,'64          ', 230.0000,1,     0.000,     0.000,   1,   1,0.93312, -15.5468,   1
    69,'69          ', 115.0000,1,     0.000,     0.000,   1,   1,0.92580, -20.7707,   1
    70,'70          ', 115.0000,1,     0.000,     0.000,   1,   1,0.91930, -38.7651,   1
    71,'71          ', 115.0000,1,     0.000,     0.000,   1,   1,0.94913, -33.1353,   1
    72,'72          ', 115.0000,1,     0.000,     0.000,   1,   1,0.94768, -28.8972,   1
    73,'73          ', 115.0000,1,     0.000,     0.000,   1,   1,0.94180, -26.9259,   1
    74,'74          ', 230.0000,1,     0.000,     0.000,   1,   1,0.95595, -20.9234,   1
    76,'76          ', 115.0000,1,     0.000,     0.000,   1,   1,0.96317, -27.9353,   1
    77,'77          ', 115.0000,1,     0.000,     0.000,   1,   1,0.96902, -24.8222,   1
    78,'78          ', 115.0000,1,     0.000,     0.000,   1,   1,0.97494, -23.7482,   1
    79,'79          ', 115.0000,1,     0.000,     0.000,   1,   1,0.95657, -24.4649,   1
    80,'80          ', 115.0000,1,     0.000,     0.000,   1,   1,0.96198, -20.7234,   1
    81,'81          ', 345.0000,1,     0.000,     0.000,   1,   1,0.99971, -10.2914,   1
    84,'84          ', 115.0000,1,     0.000,     0.000,   1,   1,1.02498, -16.0184,   1
    85,'85          ', 230.0000,1,     0.000,     0.000,   1,   1,0.97052, -35.8759,   1
    86,'86          ', 230.0000,1,     0.000,     0.000,   1,   1,0.96196, -30.8777,   1
    87,'87          ', 230.0000,1,     0.000,     0.000,   1,   1,0.95125, -20.1787,   1
    88,'88          ', 230.0000,1,     0.000,     0.000,   1,   1,0.98090, -16.2523,   1
    89,'89          ', 115.0000,1,     0.000,     0.000,   1,   1,1.00683, -23.8526,   1
    90,'90          ', 115.0000,1,     0.000,     0.000,   1,   1,0.99357, -22.2948,   1
    91,'91          ', 115.0000,1,     0.000,     0.000,   1,   1,1.05199, -24.4974,   1
    92,'92          ', 115.0000,1,     0.000,     0.000,   1,   1,1.05199, -19.8194,   1
    94,'94          ', 115.0000,1,     0.000,     0.000,   1,   1,0.96188, -23.1860,   1
    97,'97          ', 115.0000,1,     0.000,     0.000,   1,   1,1.00602, -30.0482,   1
    98,'98          ', 115.0000,1,     0.000,     0.000,   1,   1,1.00000, -33.2485,   1
    99,'99          ', 115.0000,1,     0.000,     0.000,   1,   1,0.98617, -39.4085,   1
   100,'100         ', 115.0000,1,     0.000,     0.000,   1,   1,0.99546, -32.1631,   1
   102,'102         ', 115.0000,1,     0.000,     0.000,   1,   1,0.98582, -33.0334,   1
   103,'103         ', 115.0000,1,     0.000,     0.000,   1,   1,1.01589, -27.6266,   1
   104,'104         ', 115.0000,1,     0.000,     0.000,   1,   1,0.98412, -35.8749,   1
   105,'105         ', 115.0000,1,     0.000,     0.000,   1,   1,1.00526, -28.1752,   1
   107,'107         ', 115.0000,1,     0.000,     0.000,   1,   1,0.98166, -30.7980,   1
   108,'108         ', 115.0000,1,     0.000,     0.000,   1,   1,0.98999, -39.6381,   1
   109,'109         ', 115.0000,1,     0.000,     0.000,   1,   1,0.92673, -41.5332,   1
   110,'110         ', 115.0000,1,     0.000,     0.000,   1,   1,0.93390, -42.3676,   1
   112,'112         ', 115.0000,1,     0.000,     0.000,   1,   1,0.91077, -40.2834,   1
   113,'113         ', 115.0000,1,     0.000,     0.000,   1,   1,0.91162, -34.1323,   1
   114,'114         ', 115.0000,1,     0.000,     0.000,   1,   1,0.91320, -39.1647,   1
   115,'115         ', 115.0000,1,     0.000,     0.000,   2,   2,0.91487,  32.5357,   1
   116,'116         ', 115.0000,1,     0.000,     0.000,   2,   2,1.03365,  39.8251,   1
   117,'117         ', 115.0000,1,     0.000,   325.000,   2,   2,0.90030,  46.7249,   1
   118,'118         ', 115.0000,1,     0.000,     0.000,   2,   2,0.89531,  48.0215,   1
   119,'119         ', 115.0000,1,     0.000,     0.000,   2,   2,1.04336,  64.6628,   1
   120,'120         ', 115.0000,1,     0.000,    55.000,   2,   2,1.01033,  59.7942,   1
   121,'121         ', 115.0000,1,     0.000,     0.000,   2,   2,0.84069,  36.7102,   1
   122,'122         ', 115.0000,1,     0.000,     0.000,   2,   2,0.89537,  29.5802,   1
   123,'123         ', 115.0000,1,     0.000,     0.000,   2,   2,0.96608,  24.0885,   1
   124,'124         ', 115.0000,1,     0.000,     0.000,   2,   2,1.02328,  36.3487,   1
   125,'125         ', 115.0000,1,     0.000,     0.000,   2,   2,1.01026,  11.7067,   1
   126,'126         ', 115.0000,1,     0.000,     0.000,   2,   2,0.97007,  15.6620,   1
   127,'127         ', 230.0000,1,     0.000,     0.000,   2,   2,0.98858,   9.7661,   1
   128,'128         ', 230.0000,1,     0.000,     0.000,   2,   2,1.00059,   9.9603,   1
   129,'129         ', 230.0000,1,     0.000,     0.000,   2,   2,0.99969,  10.6553,   1
   130,'130         ', 230.0000,1,     0.000,     0.000,   2,   2,1.01006,  12.9372,   1
   131,'131         ', 230.0000,1,     0.000,     0.000,   2,   2,0.97445,   7.8902,   1
   132,'132         ', 230.0000,1,     0.000,     0.000,   2,   2,0.99891,  12.1134,   1
   133,'133         ', 230.0000,1,     0.000,     0.000,   2,   2,0.99984,   9.2868,   1
   134,'134         ', 230.0000,1,     0.000,     0.000,   2,   2,1.01560,  12.2036,   1
   135,'135         ', 230.0000,1,     0.000,     0.000,   2,   2,1.01419,  12.9801,   1
   136,'136         ', 230.0000,1,     0.000,     0.000,   2,   2,1.04267,  20.2570,   1
   137,'137         ', 230.0000,1,     0.000,     0.000,   2,   2,1.04381,  12.8209,   1
   138,'138         ', 230.0000,1,     0.000,     0.000,   2,   2,1.05496,   3.6422,   1
   139,'139         ', 115.0000,1,     0.000,     0.000,   2,   2,1.01017,  12.7056,   1
   140,'140         ', 230.0000,1,     0.000,     0.000,   2,   2,1.04100,  11.6005,   1
   141,'141         ', 230.0000,1,     0.000,     0.000,   2,   2,1.05099,  16.4995,   1
   142,'142         ', 230.0000,1,     0.000,     0.000,   2,   2,1.01499,  11.2869,   1
   143,'143         ', 230.0000,1,     0.000,     0.000,   2,   2,1.04348,  17.0428,   1
   144,'144         ', 230.0000,1,     0.000,     0.000,   2,   2,0.99256,   1.7378,   1
   145,'145         ', 230.0000,1,     0.000,     0.000,   2,   2,1.00757,  14.4902,   1
   146,'146         ', 230.0000,1,     0.000,     0.000,   2,   2,1.05280,  20.1293,   1
   147,'147         ', 230.0000,1,     0.000,     0.000,   2,   2,1.05280,  24.8031,   1
   148,'148         ', 230.0000,1,     0.000,     0.000,   2,   2,1.05693,  13.6610,   1
   149,'149         ', 230.0000,1,     0.000,     0.000,   2,   2,1.07350,  19.2874,   1
   150,'150         ', 230.0000,1,     0.000,     0.000,   2,   2,0.97584,   8.8072,   1
   151,'151         ', 230.0000,1,     0.000,     0.000,   2,   2,0.99903,  11.8605,   1
   152,'152         ', 230.0000,1,     0.000,     0.000,   2,   2,1.05350,  29.2573,   1
   153,'153         ', 230.0000,1,     0.000,     0.000,   2,   2,1.04350,  30.9555,   1
   154,'154         ', 115.0000,1,     0.000,    34.500,   2,   2,0.96733,  18.2562,   1
   155,'155         ', 230.0000,1,     0.000,     0.000,   2,   2,1.00938,  26.3561,   1
   156,'156         ', 115.0000,1,     0.000,     0.000,   2,   2,0.96300,  24.7535,   1
   157,'157         ', 230.0000,1,     0.000,     0.000,   2,   2,0.90831,  30.9357,   1
   158,'158         ', 230.0000,1,     0.000,     0.000,   2,   2,0.93396,  29.9982,   1
   159,'159         ', 230.0000,1,     0.000,     0.000,   2,   2,0.89751,  35.7151,   1
   160,'160         ', 230.0000,1,     0.000,     0.000,   2,   2,0.97314,  33.4471,   1
   161,'161         ', 230.0000,1,     0.000,     0.000,   2,   2,1.03300,  29.0508,   1
   162,'162         ', 230.0000,1,     0.000,     0.000,   2,   2,0.97287,  39.8168,   1
   163,'163         ', 230.0000,1,     0.000,     0.000,   2,   2,1.02503,  19.2037,   1
   164,'164         ', 230.0000,1,     0.000,  -212.000,   2,   2,0.96781,  29.0803,   1
   165,'165         ', 230.0000,1,     0.000,     0.000,   2,   2,0.98712,  49.0344,   1
   166,'166         ', 230.0000,1,     0.000,  -103.000,   2,   2,0.98914,  53.6061,   1
   167,'167         ', 230.0000,1,     0.000,     0.000,   2,   2,0.96840,   6.8922,   1
   168,'168         ', 230.0000,1,     0.000,     0.000,   2,   2,1.00058,   9.9536,   1
   169,'169         ', 230.0000,1,     0.000,     0.000,   2,   2,0.98254,   8.6194,   1
   170,'170         ', 115.0000,1,     0.000,     0.000,   2,   2,0.92899,   8.8350,   1
   171,'171         ', 115.0000,1,     0.000,     0.000,   2,   2,0.98288,   4.7997,   1
   172,'172         ', 115.0000,1,     0.000,     0.000,   2,   2,1.02270,  10.0136,   1
   173,'173         ', 115.0000,1,     0.000,    53.000,   2,   2,0.98079,   3.1378,   1
   174,'174         ', 115.0000,1,     0.000,     0.000,   2,   2,1.06154,  13.6572,   1
   175,'175         ', 115.0000,1,     0.000,     0.000,   2,   2,0.97225,   7.3483,   1
   176,'176         ', 115.0000,1,     0.000,     0.000,   2,   2,1.05220,  21.8080,   1
   177,'177         ', 115.0000,1,     0.000,     0.000,   2,   2,1.00770,  16.9735,   1
   178,'178         ', 115.0000,1,     0.000,     0.000,   2,   2,0.93906,   8.3076,   1
   179,'179         ', 115.0000,1,     0.000,    45.000,   2,   2,0.96993,   5.0561,   1
   180,'180         ', 115.0000,1,     0.000,     0.000,   2,   2,0.97865,  11.6359,   1
   181,'181         ', 230.0000,1,     0.000,     0.000,   2,   2,1.04797,  12.4891,   1
   182,'182         ', 230.0000,1,     0.000,     0.000,   2,   2,1.04338,  11.3252,   1
   183,'183         ', 115.0000,1,     0.000,     0.000,   2,   2,0.97180,  27.5436,   1
   184,'184         ', 230.0000,1,     0.000,     0.000,   2,   2,1.03573,  13.9924,   1
   185,'185         ', 230.0000,1,     0.000,     0.000,   2,   2,1.05220,  16.8739,   1
   186,'186         ', 230.0000,1,     0.000,     0.000,   2,   2,1.06497,  16.7398,   1
   187,'187         ', 230.0000,1,     0.000,     0.000,   2,   2,1.06497,  15.6608,   1
   188,'188         ', 230.0000,1,     0.000,     0.000,   2,   2,1.05005,  13.2441,   1
   189,'189         ',  66.0000,1,     0.000,     0.000,   3,   3,0.98501, -16.6992,   1
   190,'190         ', 345.0000,1,     0.000,  -150.000,   3,   3,1.05509,   1.0593,   1
   191,'191         ', 230.0000,1,     0.000,     0.000,   3,   3,1.04340,  57.9629,   1
   192,'192         ', 230.0000,1,     0.000,     0.000,   3,   3,0.87796,  28.0975,   1
   193,'192         ',  66.0000,1,     0.000,     0.000,   3,   3,0.96895, -18.6971,   1
   194,'194         ', 345.0000,1,     0.000,     0.000,   3,   3,1.02495,  -3.8904,   1
   195,'195         ', 345.0000,1,     0.000,     0.000,   3,   3,1.01301,  -6.2109,   1
   196,'196         ', 115.0000,1,     0.000,     0.000,   3,   3,0.94942, -14.7146,   1
   197,'197         ', 115.0000,1,     0.000,     0.000,   3,   3,0.97668, -12.5115,   1
   198,'198         ', 115.0000,1,     0.000,     0.000,   3,   3,1.01498,  -8.8019,   1
   199,'199         ', 115.0000,1,     0.000,     0.000,   3,   3,0.94450, -13.9687,   1
   200,'200         ', 115.0000,1,     0.000,     0.000,   3,   3,0.95204, -13.0104,   1
   201,'201         ',  66.0000,1,     0.000,     0.000,   1,   1,0.91830, -23.0888,   1
   202,'202         ',  66.0000,1,     0.000,     0.000,   3,   3,0.97471, -13.8372,   1
   203,'203         ', 115.0000,1,     0.000,     0.000,   3,   3,0.99538, -10.6961,   1
   204,'204         ',  66.0000,1,     0.000,     0.000,   3,   3,0.94023, -18.9173,   1
   205,'205         ',  66.0000,1,     0.000,     0.000,   3,   3,0.95391, -19.5099,   1
   206,'206         ',  66.0000,1,     0.000,     0.000,   3,   3,0.93072, -28.5474,   1
   207,'207         ',  66.0000,1,     0.000,     0.000,   1,   1,0.92678, -32.2944,   1
   208,'208         ',  66.0000,1,     0.000,     0.000,   3,   3,0.97222, -18.8926,   1
   209,'209         ',  66.0000,1,     0.000,     0.000,   3,   3,0.99382, -15.8512,   1
   210,'210         ', 115.0000,1,     0.000,     0.000,   3,   3,0.96821, -12.7198,   1
   211,'211         ', 115.0000,1,     0.000,     0.000,   3,   3,0.98390, -11.8482,   1
   212,'212         ', 138.0000,1,     0.000,     0.000,   3,   3,0.99606,  -9.5861,   1
   213,'213         ',  16.5000,1,     0.000,     0.000,   3,   3,1.00999,   8.0313,   1
   214,'214         ', 138.0000,1,     0.000,     0.000,   3,   3,0.98988,   1.3062,   1
   215,'215         ', 138.0000,1,     0.000,     0.000,   3,   3,0.98147,  -1.9358,   1
   216,'216         ', 138.0000,1,     0.000,     0.000,   3,   3,0.97121,  -3.2140,   1
   217,'217         ', 138.0000,1,     0.000,     0.000,   3,   3,1.01655,  -0.9053,   1
   218,'218         ', 138.0000,1,     0.000,     0.000,   3,   3,1.00250,  -0.9023,   1
   219,'219         ', 345.0000,1,     0.000,     0.000,   3,   3,1.04861,  -0.3254,   1
   220,'220         ', 138.0000,1,     0.000,     0.000,   3,   3,1.00799,   1.8148,   1
   221,'221         ', 138.0000,1,     0.000,     0.000,   3,   3,0.99997,   2.4609,   1
   222,'222         ',  20.0000,1,     0.000,     0.000,   3,   3,1.04999,  -0.7624,   1
   223,'223         ', 138.0000,1,     0.000,     0.000,   3,   3,0.99499,   2.2854,   1
   224,'224         ', 230.0000,1,     0.000,     0.000,   3,   3,0.97877,   3.7484,   1
   225,'225         ', 230.0000,1,     0.000,     0.000,   3,   3,0.88315,  26.9803,   1
   226,'226         ', 230.0000,1,     0.000,     0.000,   3,   3,0.99842,   2.5552,   1
   227,'227         ',  27.0000,1,     0.000,     0.000,   3,   3,0.99997,  -4.5183,   1
   228,'228         ', 138.0000,1,     0.000,     0.000,   3,   3,1.03995,   1.9263,   1
   229,'229         ', 138.0000,1,     0.000,     0.000,   3,   3,1.04746,   2.9774,   1
   230,'230         ',  20.0000,1,     0.000,     0.000,   3,   3,1.03999,  10.0028,   1
   231,'231         ', 345.0000,1,     0.000,  -300.000,   3,   3,1.05031,   0.3600,   1
   232,'232         ', 138.0000,1,     0.000,     0.000,   3,   3,1.03876,  -1.4675,   1
   233,'233         ',  66.0000,1,     0.000,     0.000,   3,   3,0.99999,  -3.0133,   1
   234,'234         ', 138.0000,1,     0.000,     0.000,   3,   3,1.03658,   2.2067,   1
   235,'235         ', 138.0000,1,     0.000,     0.000,   3,   3,1.00937,   2.7029,   1
   236,'236         ',  20.0000,1,     0.000,     0.000,   3,   3,1.01647,   8.5229,   1
   237,'237         ', 345.0000,1,     0.000,     0.000,   3,   3,1.05190,   0.3486,   1
   238,'238         ', 138.0000,1,     0.000,  -150.000,   3,   3,1.00998,   2.8048,   1
   239,'239         ', 138.0000,1,     0.000,     0.000,   3,   3,0.99999,   8.6244,   1
   240,'240         ', 230.0000,1,     0.000,  -140.000,   3,   3,1.02377,   1.5420,   1
   241,'241         ',  20.0000,1,     0.000,     0.000,   3,   3,1.05000,   5.6150,   1
   242,'242         ', 138.0000,1,     0.000,     0.000,   3,   3,0.99299,   1.3605,   1
   243,'243         ',  66.0000,1,     0.000,     0.000,   3,   3,1.00999,   0.0512,   1
   244,'244         ',  66.0000,1,     0.000,     0.000,   3,   3,0.99130,  -1.0525,   1
   245,'245         ',  66.0000,1,     0.000,     0.000,   3,   3,0.96979,  -2.0187,   1
   246,'246         ',  66.0000,1,     0.000,     0.000,   3,   3,0.96319,  -2.8527,   1
   247,'247         ',  66.0000,1,     0.000,     0.000,   3,   3,0.96535,  -3.3805,   1
   248,'248         ',  66.0000,1,     0.000,    45.600,   3,   3,0.96230,  -8.9157,   1
   249,'249         ',  66.0000,1,     0.000,     0.000,   3,   3,0.96146,  -9.3523,   1
   250,'250         ',  66.0000,1,     0.000,     0.000,   3,   3,1.00638,  -7.4429,   1
   281,'281         ', 230.0000,1,     0.000,     0.000,   3,   3,1.02512,   1.6148,   1
   319,'319         ', 230.0000,1,     0.000,     0.000,   1,   1,1.00606,  -8.3598,   1
   320,'320         ', 115.0000,1,     0.000,     0.000,   1,   1,0.99006, -13.6869,   1
   322,'322         ', 115.0000,1,     0.000,     0.000,   1,   1,0.99080, -36.3116,   1
   323,'323         ', 230.0000,1,     0.000,     0.000,   1,   1,0.94499, -30.0584,   1
   324,'324         ', 115.0000,1,     0.000,     0.000,   1,   1,0.96431, -44.4498,   1
   526,'526         ', 115.0000,1,     0.000,     0.000,   1,   1,0.95165, -38.1891,   1
   528,'528         ', 115.0000,1,     0.000,     0.000,   1,   1,0.94090, -41.3509,   1
   531,'531         ', 115.0000,1,     0.000,     0.000,   1,   1,0.93306, -31.4878,   1
   552,'552         ', 115.0000,1,     0.000,     0.000,   1,   1,0.99276, -22.3295,   1
   562,'562         ', 230.0000,1,     0.000,     0.000,   1,   1,0.93224, -27.4562,   1
   609,'609         ', 115.0000,1,     0.000,     0.000,   1,   1,0.92571, -30.9281,   1
   664,'664         ', 345.0000,1,     0.000,     0.000,   3,   3,1.00619,  -1.5693,   1
  1190,'1190        ',  86.0000,1,     0.000,     0.000,   1,   1,1.03150,  62.8251,   1
  1200,'1200        ',  86.0000,1,     0.000,     0.000,   1,   1,0.99779,  61.7751,   1
  1201,'1201        ', 115.0000,1,     0.000,     0.000,   2,   2,1.24157,  72.5368,   1
  2040,'2040        ', 115.0000,1,     0.000,     0.000,   3,   3,0.94377,  -4.6500,   1
  7001,'7001        ',  13.8000,1,     0.000,     0.000,   1,   1,1.05068,   8.4576,   1
  7002,'7002        ',  13.8000,1,     0.000,     0.000,   1,   1,1.05069,  10.5573,   1
  7003,'7003        ',  13.8000,1,     0.000,     0.000,   1,   1,1.03224,  15.0046,   1
  7011,'7011        ',  13.8000,1,     0.000,     0.000,   1,   1,1.01449,  -1.0497,   1
  7012,'7012        ',  13.8000,1,     0.000,     0.000,   1,   1,1.05068,   9.9245,   1
  7017,'7017        ',  13.8000,1,     0.000,     0.000,   1,   1,1.05064, -26.3156,   1
  7023,'7023        ',  13.8000,1,     0.000,     0.000,   1,   1,1.05070,  -2.4489,   1
  7024,'7024        ',  13.8000,1,     0.000,     0.000,   1,   1,1.02899,   6.2516,   1
  7039,'7039        ',  20.0000,1,     0.000,     0.000,   1,   1,1.04997,   1.8823,   1
  7044,'7044        ',  13.8000,1,     0.000,     0.000,   1,   1,1.01449, -17.3247,   1
  7049,'7049        ',  13.8000,1,     0.000,     0.000,   1,   1,1.05069,   0.5016,   1
  7055,'7055        ',  13.8000,1,     0.000,     0.000,   1,   1,0.99670, -13.2643,   1
  7057,'7057        ',  13.8000,1,     0.000,     0.000,   1,   1,1.02119, -10.2903,   1
  7061,'7061        ',  13.8000,1,     0.000,     0.000,   1,   1,1.01447,  -2.1848,   1
  7062,'7062        ',  13.8000,1,     0.000,     0.000,   1,   1,1.00168,   8.5284,   1
  7071,'7071        ',  13.8000,1,     0.000,     0.000,   1,   1,0.98929, -27.7813,   1
  7130,'7130        ',  13.8000,1,     0.000,     0.000,   2,   2,1.05066,  28.5455,   1
  7139,'7139        ',  13.8000,1,     0.000,     0.000,   2,   2,1.05067,  19.9511,   1
  7166,'7166        ',  13.8000,1,     0.000,     0.000,   2,   2,1.01448,  59.1830,   1
  9001,'9001        ', 115.0000,1,     0.000,     0.000,   1,   9,0.98260, -17.6035,   1
  9002,'9002        ',   6.6000,1,     0.000,     0.000,   1,   9,0.99450, -25.6607,   1
  9003,'9003        ',   6.6000,1,     0.140,     2.400,   1,   9,0.94040, -26.7075,   1
  9004,'9004        ',   6.6000,1,     0.000,     0.000,   1,   9,0.93358, -26.8563,   1
  9005,'9005        ', 115.0000,1,     0.000,     0.000,   1,   9,0.98384, -17.6807,   1
  9006,'9006        ',   6.6000,1,     0.000,     0.000,   1,   9,0.96177, -24.2596,   1
  9007,'9007        ',   6.6000,1,     0.000,     0.000,   1,   9,0.94924, -25.6237,   1
  9012,'9012        ',   6.6000,1,     0.000,     0.000,   1,   9,0.99361, -23.9674,   1
  9021,'9021        ',   6.6000,1,     0.000,     0.000,   1,   9,0.98872, -25.8813,   1
  9022,'9022        ',   0.6000,1,     0.080,     0.000,   1,   9,0.96488, -28.4538,   1
  9023,'9023        ',   6.6000,1,     0.000,     0.000,   1,   9,0.97470, -26.1905,   1
  9024,'9024        ',   0.6000,1,     0.070,     0.000,   1,   9,0.97050, -28.2267,   1
  9025,'9025        ',   0.6000,1,     0.020,     0.000,   1,   9,0.96476, -27.2517,   1
  9026,'9026        ',   0.6000,1,     0.020,     0.000,   1,   9,0.96561, -27.1624,   1
  9031,'9031        ',   0.6000,1,     0.100,     0.000,   1,   9,0.88579, -32.5591,   1
  9032,'9032        ',   0.6000,1,     0.070,     0.000,   1,   9,0.89897, -31.2507,   1
  9033,'9033        ',   0.6000,1,     0.100,     0.000,   1,   9,0.88262, -32.9079,   1
  9034,'9034        ',   0.6000,1,     0.080,     1.720,   1,   9,0.95276, -28.2362,   1
  9035,'9035        ',   0.6000,1,     0.090,     0.000,   1,   9,0.90573, -30.5300,   1
  9036,'9036        ',   2.3000,1,     0.000,     0.000,   1,   9,0.91548, -29.9801,   1
  9037,'9037        ',   0.6000,1,     0.100,     0.000,   1,   9,0.91273, -29.8801,   1
  9038,'9038        ',   0.6000,1,     0.140,     0.000,   1,   9,0.89372, -31.8912,   1
  9041,'9041        ',   0.6000,1,     0.050,     0.000,   1,   9,0.91966, -28.4957,   1
  9042,'9042        ',   0.6000,1,     0.040,     0.000,   1,   9,0.90565, -29.7713,   1
  9043,'9043        ',   2.3000,1,     0.000,     0.000,   1,   9,0.92082, -28.6145,   1
  9044,'9044        ',   6.6000,1,     0.000,     0.000,   1,   9,0.93586, -26.8128,   1
  9051,'9051        ',  13.8000,1,     0.000,     0.000,   1,   9,1.00000, -26.2291,   1
  9052,'9052        ',  13.8000,1,     0.000,     0.000,   1,   9,0.94505, -23.9914,   1
  9053,'9053        ',  13.8000,1,     0.000,     0.000,   1,   9,1.00000, -24.3280,   1
  9054,'9054        ',  13.8000,1,     0.000,     0.000,   1,   9,1.00000, -12.3845,   1
  9055,'9055        ',  13.8000,1,     0.000,     0.000,   1,   9,1.00000, -13.2226,   1
  9071,'9071        ',   0.6000,1,     0.050,     0.000,   1,   9,0.93253, -27.5663,   1
  9072,'9072        ',   0.6000,1,     0.050,     0.000,   1,   9,0.93781, -26.9631,   1
  9121,'9121        ',   6.6000,1,     0.000,     0.000,   1,   9,0.97100, -26.0280,   1
  9533,'9533        ',   2.3000,1,     0.100,     0.000,   1,   9,1.04052, -24.8418,   1
 10000,'10000       ',  13.8000,2,     0.000,     0.000,   1,   1,1.01530,  -3.3358,   1
 10001,'10001       ',  13.8000,2,     0.000,     0.000,   1,   1,1.02050,  -4.2048,   1
 10002,'10002       ',  13.8000,2,     0.000,     0.000,   1,   1,1.00100, -11.5829,   1
 10003,'10003       ',  13.8000,2,     0.000,     0.000,   1,   1,0.95830, -21.4910,   1
 10004,'10004       ',  13.8000,2,     0.000,     0.000,   1,   1,0.96320, -27.9353,   1
 10005,'10005       ',  20.0000,2,     0.000,     0.000,   1,   1,1.02500, -16.0161,   1
 10006,'10006       ',  18.0000,2,     0.000,     0.000,   1,   1,1.05200, -24.4965,   1
 10007,'10007       ',  24.0000,2,     0.000,     0.000,   1,   1,1.05200, -19.8177,   1
 10008,'10008       ',  15.5000,2,     0.000,     0.000,   1,   1,1.00000, -33.2481,   1
 10009,'10009       ',  18.0000,2,     0.000,     0.000,   1,   1,0.99000, -39.6373,   1
 10010,'10010       ',  26.0000,2,     0.000,     0.000,   2,   1,1.04350,  64.6745,   1
 10011,'10011       ',  24.0000,2,     0.000,     0.000,   2,   1,1.02330,  36.3502,   1
 10012,'10012       ',  13.8000,2,     0.000,     0.000,   2,   1,1.01030,  11.7067,   1
 10013,'10013       ',  26.0000,2,     0.000,     0.000,   2,   1,1.05500,   3.6375,   1
 10014,'10014       ',  24.0000,2,     0.000,     0.000,   2,   1,1.05100,  16.5011,   1
 10015,'10015       ',  26.0000,2,     0.000,     0.000,   2,   1,1.04350,  17.0470,   1
 10016,'10016       ',  15.5000,2,     0.000,     0.000,   2,   1,1.05280,  20.1298,   1
 10017,'10017       ',  24.0000,2,     0.000,     0.000,   2,   1,1.05280,  24.8044,   1
 10018,'10018       ',  18.0000,2,     0.000,     0.000,   2,   1,1.07350,  19.2880,   1
 10019,'10019       ',  20.0000,2,     0.000,     0.000,   2,   1,1.05350,  29.2595,   1
 10020,'10020       ',  24.0000,2,     0.000,     0.000,   2,   1,1.04350,  30.9568,   1
 10021,'10021       ',  13.8000,2,     0.000,     0.000,   2,   1,0.96300,  24.7535,   1
 10022,'10022       ',  24.0000,2,     0.000,     0.000,   2,   1,0.92900,   8.8365,   1
 10023,'10023       ',  13.8000,2,     0.000,     0.000,   2,   1,0.98290,   4.7997,   1
 10024,'10024       ',  24.0000,2,     0.000,     0.000,   2,   1,1.05220,  21.8094,   1
 10025,'10025       ',  18.0000,2,     0.000,     0.000,   2,   1,1.00770,  16.9740,   1
 10026,'10026       ',  24.0000,2,     0.000,     0.000,   2,   1,1.05220,  16.8751,   1
 10027,'10027       ',  26.0000,2,     0.000,     0.000,   2,   1,1.06500,  16.7467,   1
 10028,'10028       ',  26.0000,2,     0.000,     0.000,   2,   1,1.06500,  15.6678,   1
 10029,'10029       ',  20.0000,2,     0.000,     0.000,   3,   1,1.05510,   1.0621,   1
 10030,'10030       ',  26.0000,2,     0.000,     0.000,   3,   1,1.04350,  57.9748,   1
 10031,'10031       ',  20.0000,2,     0.000,     0.000,   3,   1,1.01500,  -8.7992,   1
 10032,'10032       ',  24.0000,2,     0.000,     0.000,   3,   1,1.01000,   8.0331,   1
 10033,'10033       ',  18.0000,2,     0.000,     0.000,   3,   1,1.00800,   1.8155,   1
 10034,'10034       ',  20.0000,2,     0.000,     0.000,   3,   1,1.00000,   2.4639,   1