30, 'GENSAL', 1,   7.00000,     0.300000E-01, 0.350000E-01,  3.00000,     1.00000,      1.20000,      0.80000,     0.220000,     0.200000,     0.160000,     0.050000,     0.300000     /
30, 'ESST1A', 1,   1, 1, 0.000,  999.000,     -999.000,     1.000000,      10.0000,      0.00000,      0.00000,      178.900,  0.02000000,    999.000,     -999.000,      10.0000,     -10.0000,     0.050000,      0.00000,      1.00000,      0.00000,      0.00000 /
31, 'GENSAL', 1,   7.00000,     0.300000E-01, 0.350000E-01,  3.00000,     1.00000,      1.20000,      0.80000,     0.220000,     0.200000,     0.160000,     0.050000,     0.300000     /
31, 'ESST1A', 1,   1, 1, 0.000,  999.000,     -999.000,     1.000000,      10.0000,      0.00000,      0.00000,      178.900,  0.02000000,    999.000,     -999.000,      10.0000,     -10.0000,     0.050000,      0.00000,      1.00000,      0.00000,      0.00000 /
32, 'GENSAL', 1,   7.00000,     0.300000E-01, 0.350000E-01,  3.00000,     1.00000,      1.20000,      0.80000,     0.220000,     0.200000,     0.160000,     0.050000,     0.300000     /
32, 'ESST1A', 1,   1, 1, 0.000,  999.000,     -999.000,     1.000000,      10.0000,      0.00000,      0.00000,      178.900,  0.02000000,    999.000,     -999.000,      10.0000,     -10.0000,     0.050000,      0.00000,      1.00000,      0.00000,      0.00000 /
33, 'GENSAL', 1,   7.00000,     0.300000E-01, 0.350000E-01,  3.00000,     1.00000,      1.20000,      0.80000,     0.220000,     0.200000,     0.160000,     0.050000,     0.300000     /
33, 'ESST1A', 1,   1, 1, 0.000,  999.000,     -999.000,     1.000000,      10.0000,      0.00000,      0.00000,      178.900,  0.02000000,    999.000,     -999.000,      10.0000,     -10.0000,     0.050000,      0.00000,      1.00000,      0.00000,      0.00000 /
34, 'GENSAL', 1,   7.00000,     0.300000E-01, 0.350000E-01,  3.00000,     1.00000,      1.20000,      0.80000,     0.220000,     0.200000,     0.160000,     0.050000,     0.300000     /
34, 'ESST1A', 1,   1, 1, 0.000,  999.000,     -999.000,     1.000000,      10.0000,      0.00000,      0.00000,      178.900,  0.02000000,    999.000,     -999.000,      10.0000,     -10.0000,     0.050000,      0.00000,      1.00000,      0.00000,      0.00000 /
35, 'GENSAL', 1,   7.00000,     0.300000E-01, 0.350000E-01,  3.00000,     1.00000,      1.20000,      0.80000,     0.220000,     0.200000,     0.160000,     0.050000,     0.300000     /
35, 'ESST1A', 1,   1, 1, 0.000,  999.000,     -999.000,     1.000000,      10.0000,      0.00000,      0.00000,      178.900,  0.02000000,    999.000,     -999.000,      10.0000,     -10.0000,     0.050000,      0.00000,      1.00000,      0.00000,      0.00000 /
36, 'GENSAL', 1,   7.00000,     0.300000E-01, 0.350000E-01,  3.00000,     1.00000,      1.20000,      0.80000,     0.220000,     0.200000,     0.160000,     0.050000,     0.300000     /
36, 'ESST1A', 1,   1, 1, 0.000,  999.000,     -999.000,     1.000000,      10.0000,      0.00000,      0.00000,      178.900,  0.02000000,    999.000,     -999.000,      10.0000,     -10.0000,     0.050000,      0.00000,      1.00000,      0.00000,      0.00000 /
37, 'GENSAL', 1,   7.00000,     0.300000E-01, 0.350000E-01,  3.00000,     1.00000,      1.20000,      0.80000,     0.220000,     0.200000,     0.160000,     0.050000,     0.300000     /
37, 'ESST1A', 1,   1, 1, 0.000,  999.000,     -999.000,     1.000000,      10.0000,      0.00000,      0.00000,      178.900,  0.02000000,    999.000,     -999.000,      10.0000,     -10.0000,     0.050000,      0.00000,      1.00000,      0.00000,      0.00000 /
38, 'GENSAL', 1,   7.00000,     0.300000E-01, 0.350000E-01,  3.00000,     1.00000,      1.20000,      0.80000,     0.220000,     0.200000,     0.160000,     0.050000,     0.300000     /
38, 'ESST1A', 1,   1, 1, 0.000,  999.000,     -999.000,     1.000000,      10.0000,      0.00000,      0.00000,      178.900,  0.02000000,    999.000,     -999.000,      10.0000,     -10.0000,     0.050000,      0.00000,      1.00000,      0.00000,      0.00000 /
               
39, 'GENCLS', 1,  500.00,          10.000/ 

504, 'USRLOD', 1, 'ACMTBLU1', 12, 1, 0, 35, 9, 29, 16, 0.033,   0.40,  0.02,0.05,   0,   0.98,   0.5,   0.124,   0.114, 0.3,  0.0, 1.0, 6.0, 2.0, 12.0, 3.2, 11.0,  2.5, 0.86, 0.20, 0.95, 1.0,    -3.3,    0.5,   0.4,   0.65, 0.55,   15,  1.0,  2.9, 0.0,  0.5,  0.02,  0.90,  5.0 /
507, 'USRLOD', 1, 'ACMTBLU1', 12, 1, 0, 35, 9, 29, 16, 0.033,   0.40,  0.02,0.05,   0,   0.98,   0.5,   0.124,   0.114, 0.3,  0.0, 1.0, 6.0, 2.0, 12.0, 3.2, 11.0,  2.5, 0.86, 0.20, 0.95, 1.0,    -3.3,    0.5,   0.4,   0.65, 0.55,   15,  1.0,  2.9, 0.0,  0.5,  0.02,  0.90,  5.0 /
518, 'USRLOD', 1, 'ACMTBLU1', 12, 1, 0, 35, 9, 29, 16, 0.033,   0.40,  0.02,0.05,   0,   0.98,   0.5,   0.124,   0.114, 0.3,  0.0, 1.0, 6.0, 2.0, 12.0, 3.2, 11.0,  2.5, 0.86, 0.20, 0.95, 1.0,    -3.3,    0.5,   0.4,   0.65, 0.55,   15,  1.0,  2.9, 0.0,  0.5,  0.02,  0.90,  5.0 /



